Version 4
SHEET 1 14432 10312
WIRE 4080 -80 4048 -80
WIRE 4144 -48 4016 -48
WIRE 1936 -16 1824 -16
WIRE 2272 -16 1936 -16
WIRE 2384 -16 2272 -16
WIRE 2272 0 2272 -16
WIRE 4080 0 4080 -80
WIRE 1936 16 1936 -16
WIRE 4016 16 4016 -48
WIRE 4048 16 4016 16
WIRE 4144 32 4144 -48
WIRE 4144 32 4112 32
WIRE 4176 32 4144 32
WIRE 4048 48 4016 48
WIRE 4448 48 4384 48
WIRE 4480 48 4448 48
WIRE 4176 64 4176 32
WIRE 4448 80 4448 48
WIRE 4080 96 4080 64
WIRE 1936 112 1936 80
WIRE 2272 112 2272 80
WIRE 2384 112 2272 112
WIRE 2272 128 2272 112
WIRE 4384 160 4384 48
WIRE 1936 176 1888 176
WIRE 2048 176 1936 176
WIRE 2128 176 2048 176
WIRE 4176 176 4176 144
WIRE 4352 176 4176 176
WIRE 4448 192 4448 160
WIRE 4448 192 4416 192
WIRE 4496 192 4448 192
WIRE 1936 208 1936 176
WIRE 2048 208 2048 176
WIRE 4352 208 4320 208
WIRE 2272 224 2272 192
WIRE 4176 224 4176 176
WIRE 1936 304 1936 272
WIRE 2048 304 2048 272
WIRE 4176 336 4176 304
WIRE 4272 336 4176 336
WIRE 4384 336 4384 224
WIRE 4384 336 4272 336
WIRE 4976 336 4944 336
WIRE 5072 336 5040 336
WIRE 1824 368 1824 -16
WIRE 1888 368 1888 176
WIRE 2048 368 2016 368
WIRE 2144 368 2112 368
WIRE 4272 368 4272 336
WIRE 4976 384 4976 336
WIRE 5040 384 5040 336
WIRE 5040 384 5024 384
WIRE 976 416 944 416
WIRE 1072 416 1040 416
WIRE 2048 416 2048 368
WIRE 2112 416 2112 368
WIRE 2112 416 2096 416
WIRE 4960 432 4880 432
WIRE 5088 432 5040 432
WIRE 976 464 976 416
WIRE 1040 464 1040 416
WIRE 1040 464 1024 464
WIRE 1520 464 1408 464
WIRE 1712 464 1600 464
WIRE 2032 464 1968 464
WIRE 2160 464 2112 464
WIRE 5088 480 5088 432
WIRE 5200 480 5088 480
WIRE 5440 480 5376 480
WIRE 5504 480 5440 480
WIRE 5664 480 5584 480
WIRE 5744 480 5664 480
WIRE 5872 480 5744 480
WIRE 1088 512 1040 512
WIRE 1408 512 1408 464
WIRE 1888 512 1888 432
WIRE 1968 512 1888 512
WIRE 2160 512 2160 464
WIRE 2208 512 2160 512
WIRE 2336 512 2208 512
WIRE 2432 512 2416 512
WIRE 2528 512 2432 512
WIRE 2672 512 2592 512
WIRE 2736 512 2672 512
WIRE 2864 512 2736 512
WIRE 3552 512 2944 512
WIRE 3616 512 3552 512
WIRE 3552 528 3552 512
WIRE 4960 528 4880 528
WIRE 5088 528 5088 480
WIRE 5088 528 5040 528
WIRE 5200 528 5200 480
WIRE 5376 528 5376 480
WIRE 1888 544 1888 512
WIRE 4880 544 4880 528
WIRE 1968 560 1968 512
WIRE 2032 560 1968 560
WIRE 2160 560 2160 512
WIRE 2160 560 2112 560
WIRE 2432 576 2432 512
WIRE 2672 576 2672 512
WIRE 2944 576 2912 576
WIRE 3280 576 2944 576
WIRE 5040 576 5024 576
WIRE 5200 576 5200 528
WIRE 5376 576 5376 528
WIRE 5744 576 5744 480
WIRE 5248 592 5248 544
WIRE 1088 608 1088 512
WIRE 1088 608 1040 608
WIRE 1712 608 1712 464
WIRE 2112 608 2096 608
WIRE 2736 608 2736 512
WIRE 2944 608 2944 576
WIRE 1296 624 1296 464
WIRE 1408 624 1408 592
WIRE 1408 624 1296 624
WIRE 3552 624 3552 608
WIRE 4224 624 4192 624
WIRE 4416 624 4224 624
WIRE 4944 624 4944 336
WIRE 4960 624 4944 624
WIRE 4976 624 4976 576
WIRE 4976 624 4960 624
WIRE 5040 624 5040 576
WIRE 5056 624 5040 624
WIRE 5072 624 5072 336
WIRE 5072 624 5056 624
WIRE 5200 624 5200 576
WIRE 5376 624 5376 576
WIRE 5440 624 5440 480
WIRE 5472 624 5440 624
WIRE 5584 624 5552 624
WIRE 5664 624 5664 480
WIRE 5248 640 5248 592
WIRE 1040 656 1024 656
WIRE 1408 656 1408 624
WIRE 1824 656 1824 432
WIRE 1888 656 1888 624
WIRE 1888 656 1824 656
WIRE 1936 656 1936 560
WIRE 1936 656 1888 656
WIRE 2016 656 2016 368
WIRE 2032 656 2016 656
WIRE 2048 656 2048 608
WIRE 2048 656 2032 656
WIRE 2112 656 2112 608
WIRE 2128 656 2112 656
WIRE 2144 656 2144 368
WIRE 2144 656 2128 656
WIRE 4224 656 4224 624
WIRE 1888 688 1888 656
WIRE 3280 688 3280 576
WIRE 4960 688 4960 624
WIRE 4976 688 4960 688
WIRE 5056 688 5056 624
WIRE 5056 688 5040 688
WIRE 5248 688 5248 640
WIRE 944 704 944 416
WIRE 976 704 976 656
WIRE 976 704 944 704
WIRE 1040 704 1040 656
WIRE 1072 704 1072 416
WIRE 1072 704 1040 704
WIRE 2432 704 2432 640
WIRE 2512 704 2432 704
WIRE 2672 704 2672 640
WIRE 2672 704 2576 704
WIRE 2944 704 2944 688
WIRE 2944 704 2912 704
WIRE 3248 704 2944 704
WIRE 5584 704 5584 624
WIRE 2032 720 2032 656
WIRE 2048 720 2032 720
WIRE 2128 720 2128 656
WIRE 2128 720 2112 720
WIRE 2944 720 2944 704
WIRE 3424 720 3312 720
WIRE 3456 720 3424 720
WIRE 5744 720 5744 656
WIRE 3248 736 3232 736
WIRE 3136 752 3104 752
WIRE 3232 752 3232 736
WIRE 3232 752 3216 752
WIRE 4960 752 4960 688
WIRE 1760 768 1760 544
WIRE 1776 768 1776 544
WIRE 2128 768 2128 720
WIRE 2432 768 2432 704
WIRE 2736 768 2736 672
WIRE 2736 768 2432 768
WIRE 4112 768 4080 768
WIRE 4224 768 4224 736
WIRE 4224 768 4112 768
WIRE 4272 768 4224 768
WIRE 5056 768 5056 688
WIRE 5088 768 5056 768
WIRE 5664 768 5664 624
WIRE 5664 768 5632 768
WIRE 2032 784 2032 720
WIRE 2736 800 2736 768
WIRE 2944 800 2944 784
WIRE 4112 800 4112 768
WIRE 1408 816 1408 736
WIRE 1552 816 1408 816
WIRE 1712 816 1712 688
WIRE 1712 816 1552 816
WIRE 3232 816 3232 752
WIRE 3296 816 3232 816
WIRE 3424 816 3424 720
WIRE 3424 816 3376 816
WIRE 4416 816 4416 624
WIRE 4384 832 4352 832
WIRE 1552 848 1552 816
WIRE 4496 848 4448 848
WIRE 5248 848 5248 688
WIRE 5248 848 4576 848
WIRE 5536 848 5536 768
WIRE 5536 848 5248 848
WIRE 2128 864 2128 848
WIRE 4272 864 4272 768
WIRE 4384 864 4272 864
WIRE 2944 880 2944 864
WIRE 1888 896 1888 768
WIRE 2672 896 2672 704
WIRE 2672 896 1888 896
WIRE 4112 896 4112 880
WIRE 1552 960 1552 928
WIRE 2944 976 2944 944
WIRE 3104 976 2944 976
WIRE 3280 976 3280 752
WIRE 3280 976 3104 976
WIRE 4224 976 4224 768
WIRE 3104 1008 3104 976
WIRE 4112 1008 4112 976
WIRE 4192 1008 4112 1008
WIRE 4112 1040 4112 1008
WIRE 4112 1152 4112 1120
WIRE 4224 1152 4224 1040
WIRE 4224 1152 4112 1152
WIRE 4320 1152 4224 1152
WIRE 4416 1152 4416 880
WIRE 4416 1152 4320 1152
WIRE 4320 1184 4320 1152
FLAG 5744 720 0
FLAG 3616 512 Vunreg
IOPIN 3616 512 Out
FLAG 1552 960 0
FLAG 2208 512 IN+
FLAG 5872 480 OUT
IOPIN 5872 480 Out
FLAG 3104 752 OUT
IOPIN 3104 752 In
FLAG 3104 1008 0
FLAG 4320 1184 0
FLAG 3456 720 CmpOut
IOPIN 3456 720 Out
FLAG 2304 768 CmpOut
IOPIN 2304 768 In
FLAG 1888 896 IN-
FLAG 2736 800 0
FLAG 3552 624 0
FLAG 2032 784 0
FLAG 2912 704 +15V
FLAG 1936 304 0
FLAG 2128 176 +34V
IOPIN 2128 176 Out
FLAG 4880 432 Vunreg
IOPIN 4880 432 In
FLAG 2384 -16 +17V
IOPIN 2384 -16 Out
FLAG 2272 224 0
FLAG 2384 112 +5V
IOPIN 2384 112 Out
FLAG 2048 304 0
FLAG 1936 112 0
FLAG 4272 368 0
FLAG 4480 48 +34V
IOPIN 4480 48 In
FLAG 4080 768 Vref
IOPIN 4080 768 Out
FLAG 4016 48 Vref
IOPIN 4016 48 In
FLAG 4192 624 +34V
IOPIN 4192 624 In
FLAG 4352 832 OUT
IOPIN 4352 832 In
FLAG 4320 208 OUT
IOPIN 4320 208 In
FLAG 4080 96 0
FLAG 4048 -80 +34V
IOPIN 4048 -80 In
FLAG 4880 544 0
FLAG 4960 752 0
FLAG 5088 768 CmpOut1
IOPIN 5088 768 In
FLAG 4496 192 CmpOut1
IOPIN 4496 192 Out
FLAG 2128 864 0
FLAG 2912 576 +34V
IOPIN 2912 576 In
SYMBOL polcap 2720 608 R0
WINDOW 3 24 56 Left 2
SYMATTR Value 45m
SYMATTR InstName C1-M
SYMATTR Description Capacitor
SYMATTR Type cap
SYMATTR SpiceLine V=35 Irms=3.355 Rser=0.004 Lser=14.3824n
SYMBOL schottky 2528 528 R270
WINDOW 0 32 32 VTop 2
WINDOW 3 0 32 VBottom 2
SYMATTR InstName D1
SYMATTR Value B560C
SYMATTR Description Diode
SYMATTR Type diode
SYMBOL npn 5200 544 R270
SYMATTR InstName Q5
SYMATTR Value TIP142
SYMATTR Prefix X
SYMBOL res 5488 496 R270
WINDOW 0 32 56 VTop 2
WINDOW 3 0 56 VBottom 2
SYMATTR InstName R16
SYMATTR Value 1
SYMBOL npn 5536 704 M90
SYMATTR InstName Q6
SYMATTR Value BC547B
SYMBOL res 5728 560 R0
SYMATTR InstName RL
SYMATTR Value 5
SYMBOL schottky 2448 640 R180
WINDOW 0 24 64 Left 2
WINDOW 3 24 0 Left 2
SYMATTR InstName D4
SYMATTR Value B560C
SYMATTR Description Diode
SYMATTR Type diode
SYMBOL voltage 1408 496 R0
WINDOW 123 0 0 Left 0
WINDOW 39 24 124 Left 2
SYMATTR SpiceLine Rser=0.1
SYMATTR InstName V3
SYMATTR Value SINE(0 10 500 0 0 1)
SYMBOL ind2 1728 704 R180
WINDOW 0 36 80 Left 2
WINDOW 3 36 40 Left 2
SYMATTR InstName L1
SYMATTR Value 367.36
SYMATTR Type ind
SYMBOL ind2 1904 784 R180
WINDOW 0 36 80 Left 2
WINDOW 3 36 40 Left 2
SYMATTR InstName L2
SYMATTR Value 1
SYMATTR Type ind
SYMBOL ind2 1904 640 R180
WINDOW 0 36 80 Left 2
WINDOW 3 36 40 Left 2
SYMATTR InstName L3
SYMATTR Value 1
SYMATTR Type ind
SYMBOL res 1504 480 R270
WINDOW 0 32 56 VTop 2
WINDOW 3 0 56 VBottom 2
SYMATTR InstName R2
SYMATTR Value 0.001
SYMBOL sw 2016 560 R270
WINDOW 0 -16 15 Right 2
WINDOW 3 -11 113 Right 2
SYMATTR InstName RelS2
SYMATTR Value SwNC
SYMBOL zener 2928 944 M180
WINDOW 0 44 36 Left 2
WINDOW 3 24 0 Left 2
SYMATTR InstName D5
SYMATTR Value 1N750
SYMBOL res 1536 832 R0
SYMATTR InstName R5
SYMATTR Value 10000000Meg
SYMBOL res 2928 592 R0
SYMATTR InstName R3-M
SYMATTR Value 2k
SYMBOL sw 2016 464 M90
WINDOW 0 -85 16 Left 2
WINDOW 3 -81 112 Left 2
SYMATTR InstName RelS1
SYMATTR Value SwNO
SYMBOL OpAmp\\LM358_TI 4416 848 R0
SYMATTR InstName U1
SYMATTR Value LM6171A/NS
SYMBOL schottky 2512 720 R270
WINDOW 0 32 32 VTop 2
WINDOW 3 0 32 VBottom 2
SYMATTR InstName D3
SYMATTR Value B560C
SYMATTR Description Diode
SYMATTR Type diode
SYMBOL schottky 2688 640 R180
WINDOW 0 24 64 Left 2
WINDOW 3 24 0 Left 2
SYMATTR InstName D2
SYMATTR Value B560C
SYMATTR Description Diode
SYMATTR Type diode
SYMBOL diode 2048 736 R270
WINDOW 0 32 32 VTop 2
WINDOW 3 0 32 VBottom 2
SYMATTR InstName D7-M
SYMATTR Value 1N4148
SYMBOL res 3552 512 R0
SYMATTR InstName R50
SYMATTR Value 25
SYMBOL res 2320 528 R270
WINDOW 0 32 56 VTop 2
WINDOW 3 0 56 VBottom 2
SYMATTR InstName R1
SYMATTR Value 0.001
SYMBOL schottky 1904 432 R180
WINDOW 0 -53 64 Left 2
WINDOW 3 -66 0 Left 2
SYMATTR InstName D8-M
SYMATTR Value B560C
SYMATTR Description Diode
SYMATTR Type diode
SYMBOL zener 2928 864 M180
WINDOW 0 42 35 Left 2
WINDOW 3 24 0 Left 2
SYMATTR InstName D6
SYMATTR Value 1N750
SYMBOL zener 2928 784 M180
WINDOW 0 42 35 Left 2
WINDOW 3 24 0 Left 2
SYMATTR InstName D12-M
SYMATTR Value STZ5_6N
SYMBOL zener 2256 192 M180
WINDOW 0 42 35 Left 2
WINDOW 3 24 0 Left 2
SYMATTR InstName 1N5338B
SYMATTR Value UMZ5_1N
SYMBOL schottky 1840 432 R180
WINDOW 0 24 64 Left 2
WINDOW 3 24 0 Left 2
SYMATTR InstName D13
SYMATTR Value B560C
SYMATTR Description Diode
SYMATTR Type diode
SYMBOL res 2256 -16 R0
SYMATTR InstName R_Fan-M
SYMATTR Value 71
SYMBOL voltage 1408 640 R0
WINDOW 123 24 124 Left 2
WINDOW 39 24 152 Left 2
SYMATTR Value2 AC 230 0
SYMATTR SpiceLine Rser=0.1
SYMATTR InstName V1
SYMATTR Value SINE(0 325.57 50)
SYMBOL res 4208 640 R0
SYMATTR InstName R19
SYMATTR Value 2.2k
SYMBOL res 4480 864 R270
WINDOW 0 32 56 VTop 2
WINDOW 3 0 56 VBottom 2
SYMATTR InstName R2_B
SYMATTR Value 0.001
SYMBOL res 5392 464 R90
WINDOW 0 0 56 VBottom 2
WINDOW 3 32 56 VTop 2
SYMATTR InstName R12
SYMATTR Value 100m
SYMBOL res 5392 512 R90
WINDOW 0 0 56 VBottom 2
WINDOW 3 32 56 VTop 2
SYMATTR InstName R13
SYMATTR Value 100m
SYMBOL res 5392 560 R90
WINDOW 0 0 56 VBottom 2
WINDOW 3 32 56 VTop 2
SYMATTR InstName R14
SYMATTR Value 100m
SYMBOL res 5392 608 R90
WINDOW 0 0 56 VBottom 2
WINDOW 3 32 56 VTop 2
SYMATTR InstName R15
SYMATTR Value 100m
SYMBOL cap 1920 16 R0
SYMATTR InstName C4-M
SYMATTR Value 1m
SYMATTR SpiceLine V=35
SYMBOL npn 5200 592 R270
SYMATTR InstName Q2
SYMATTR Value TIP142
SYMATTR Prefix X
SYMBOL npn 5200 640 R270
SYMATTR InstName Q3
SYMATTR Value TIP142
SYMATTR Prefix X
SYMBOL npn 5200 688 R270
SYMATTR InstName Q4
SYMATTR Value TIP142
SYMATTR Prefix X
SYMBOL cap 1920 208 R0
SYMATTR InstName C3-M
SYMATTR Value 1m
SYMATTR SpiceLine V=35
SYMBOL cap 2032 208 R0
SYMATTR InstName C2-M
SYMATTR Value 1m
SYMATTR SpiceLine V=35
SYMBOL OpAmp\\LM358_TI 4384 192 R0
SYMATTR InstName U3
SYMATTR Value LM6171A/NS
SYMBOL res 4160 208 R0
SYMATTR InstName R_Pot2_2
SYMATTR Value 0
SYMBOL res 4160 48 R0
SYMATTR InstName R_Pot2_1
SYMATTR Value 10k
SYMBOL res 5568 608 R90
WINDOW 0 0 56 VBottom 2
WINDOW 3 32 56 VTop 2
SYMATTR InstName R_Pot1
SYMATTR Value 1k
SYMBOL res 4096 880 R0
SYMATTR InstName R_Pot
SYMATTR Value 22k
SYMBOL res 4096 1024 R0
SYMATTR InstName R11
SYMATTR Value 820
SYMBOL REF\\tlv431 4208 976 R0
SYMATTR InstName U5
SYMBOL OpAmp\\LM358_TI 4080 32 R0
SYMATTR InstName U4
SYMATTR Value LM6171A/NS
SYMBOL res 4096 784 R0
SYMATTR InstName R10
SYMATTR Value 0
SYMBOL res 4432 64 R0
SYMATTR InstName R8
SYMATTR Value 20k
SYMBOL sw 4944 528 R270
WINDOW 0 -16 15 Right 2
WINDOW 3 -11 113 Right 2
SYMATTR InstName RelS3
SYMATTR Value SwNC
SYMBOL sw 4944 432 M90
WINDOW 0 -85 16 Left 2
WINDOW 3 -81 112 Left 2
SYMATTR InstName RelS4
SYMATTR Value SwNO
SYMBOL diode 4976 704 R270
WINDOW 0 32 32 VTop 2
WINDOW 3 0 32 VBottom 2
SYMATTR InstName D7
SYMATTR Value 1N4148
SYMBOL voltage 2112 752 R0
WINDOW 123 0 0 Left 0
WINDOW 39 0 0 Left 0
SYMATTR InstName V2
SYMATTR Value PULSE(12.5 0 0 0 0 0.1 0.2)
SYMBOL sw 944 608 R270
WINDOW 0 -16 15 Right 2
WINDOW 3 -11 113 Right 2
SYMATTR InstName RelS5
SYMATTR Value SwNC
SYMBOL sw 944 512 M90
WINDOW 0 -85 16 Left 2
WINDOW 3 -81 112 Left 2
SYMATTR InstName RelS6
SYMATTR Value SwNO
SYMBOL res 3232 736 R90
WINDOW 0 0 56 VBottom 2
WINDOW 3 32 56 VTop 2
SYMATTR InstName R6-M
SYMATTR Value 1k
SYMBOL res 3392 800 R90
WINDOW 0 0 56 VBottom 2
WINDOW 3 32 56 VTop 2
SYMATTR InstName R7-M
SYMATTR Value 40k
SYMBOL res 2848 528 R270
WINDOW 0 32 56 VTop 2
WINDOW 3 0 56 VBottom 2
SYMATTR InstName R51
SYMATTR Value 0.001
SYMBOL res 5680 608 R90
WINDOW 0 0 56 VBottom 2
WINDOW 3 32 56 VTop 2
SYMATTR InstName R17
SYMATTR Value 1k
SYMBOL OpAmp\\LM358_NS 3280 720 R0
SYMATTR InstName U2
TEXT 2432 936 Left 2 !.tran 0.25
TEXT 1664 864 Left 2 !K1 L1 L2 L3 1
TEXT 1392 1040 Left 2 !; For the relays\n.MODEL SwNO SW(Ron=10m Roff=1000Meg Vt=12 Vh=.5 Lser=10n Vser=.6)\n.MODEL SwNC SW(Roff=10m Ron=1000Meg Vt=0.5 Vh=.5 Lser=10n Vser=.6)
TEXT 768 1048 Left 2 !**************************************\n*      Model Generated by MODPEX     *\n*Copyright(c) Symmetry Design Systems*\n*         All Rights Reserved        *\n*    UNPUBLISHED LICENSED SOFTWARE   *\n*   Contains Proprietary Information *\n*      Which is The Property of      *\n*     SYMMETRY OR ITS LICENSORS      *\n*    Modeling services provided by   *\n* Interface Technologies www.i-t.com *\n**************************************\n.SUBCKT TIP142 1 2 3\n* Model generated on Feb  8, 2004\n* Model format: PSpice\n* Darlington macro model\n* External node designations\n* Node 1 -> Collect\n* Node 2 -> Base\n* Node 3 -> Emitter\nQ1 1 2 4 qmodel\nQ2 1 4 3 q1model 19.6725\nD1 3 1 dmodel\nR1 2 4 8000\nR2 4 3 40\n* Default values used in dmodel\n*   EG=1.11 TT=0 BV=infinite\n.MODEL dmodel d\n+IS=1e-12 RS=10 N=1 XTI=3\n+CJO=0 VJ=0.75 M=0.33 FC=0.5\n.MODEL qmodel npn\n+IS=2.92836e-16 BF=233.76 NF=1.2 VAF=1000\n+IKF=0.222129 ISE=4.61322e-11 NE=2.48158 BR=1.89854\n+NR=0.75 VAR=168.458 IKR=0.108495 ISC=9.99999e-14\n+NC=2.00001 RB=7.90758 IRB=0.2 RBM=7.90758\n+RE=0.275456 RC=1.42279 XTB=0.232595 XTI=3.02293 EG=1.206\n+CJE=1e-11 VJE=0.75 MJE=0.33 TF=1e-09\n+XTF=1 VTF=10 ITF=0.01 CJC=1.67157e-09\n+VJC=0.95 MJC=0.23 XCJC=0.9 FC=0.5\n+TR=1e-07 PTF=0 KF=0 AF=1\n.MODEL q1model npn\n+IS=2.92836e-16 BF=233.76 NF=1.2 VAF=1000\n+IKF=0.222129 ISE=4.61322e-11 NE=2.48158 BR=1.89854\n+NR=0.75 VAR=168.458 IKR=0.108495 ISC=9.99999e-14\n+NC=2.00001 RB=7.90758 IRB=0.2 RBM=7.90758\n+RE=0.275456 RC=1.42279 XTB=0.232595 XTI=3.02293 EG=1.206\n+CJE=1e-11 VJE=0.75 MJE=0.33 TF=1e-09\n+XTF=1 VTF=10 ITF=0.01 CJC=0\n+VJC=0.95 MJC=0.23 XCJC=0.9 FC=0.5\n+TR=1e-07 PTF=0 KF=0 AF=1\n.ENDS
TEXT 4408 224 Left 0 ;Above, a pull-up resistor so that the signal is not floating at t=0.\nUp so that the signal is pushed up the first time, else it's stuck at LOW.
TEXT 2048 648 Left 2 ;Relay
TEXT 2232 488 Left 2 ;NTCR1-M
TEXT 2136 704 Left 0 ;Diode here to protect from the coil's back "infinite" EMF
TEXT 2008 544 Left 2 ;NC
TEXT 2008 480 Left 2 ;NO
TEXT 4080 392 Left 0 ;External short-circuit protection\nSo no need for Foldback protection anymore - protection for overcurrent only
TEXT 5768 672 Left 2 ;7.5 Ohm minimum at 30 V (4 A)\nExcept voltage gets lowered. Test manually at 4 A.
TEXT 2288 80 Left 0 ;17 - 5 = 12 V --> Fan voltage (hence R_fan)
TEXT 2072 -192 Left 6 ;Unregulated module
TEXT 2024 136 Left 2 ;Relay
TEXT 2056 328 Left 2 ;Relay
TEXT -168 -120 Left 2 !*//////////////////////////////////////////////////////////////////////\n* (C) National Semiconductor, Inc.\n* Models developed and under copyright by:\n* National Semiconductor, Inc.  \n*/////////////////////////////////////////////////////////////////////\n* Legal Notice: This material is intended for free software support.\n* The file may be copied, and distributed; however, reselling the \n*  material is illegal\n*////////////////////////////////////////////////////////////////////\n* For ordering or technical information on these models, contact:\n* National Semiconductor's Customer Response Center\n*                 7:00 A.M.--7:00 P.M.  U.S. Central Time\n*                                (800) 272-9959\n* For Applications support, contact the Internet address:\n*  Appshelp@galaxy.nsc.com\n*/////////////////////////////////////////\n*LM6171A Operational Amplifier Macro-Model\n*/////////////////////////////////////////\n*\n*Connections       non-inverting input\n*                  | inverting input\n*                  | |  positive power supply\n*                  | | |  negative power supply\n*                  | | | |  output\n*                  | | | | |\n.SUBCKT LM6171A/NS 3 2 4 5 6\n* CAUTION:  SET .OPTIONS GMIN=1E-16 TO CORRECTLY MODEL INPUT BIAS CURRENT.\n* Features:\n* +/-15V Operation\n* Unity Gain Stable\n* Offset voltage (max) =             3mV\n* Gain-bandwidth product =           100 MHz \n* Supply current =                   2.5mA\n* Slew rate =                        3600V/uS\n* Open Loop gain =                   90dB\n********************************************************************\nEOX 120 10 31 32 2.0\nRCX 120 121 1K\nRDX 121 10 1K\nRBX 120 122 1K\nGOS 10 57 122 121 1.0\nRVOS 31 32 1K\nRINB 2 18 1000\nRINA 3 19 1000\nDIN1 5 18 DMOD2\nDIN2 18 4 DMOD2\nDIN3 5 19 DMOD2\nDIN4 19 4 DMOD2\nEXX 10 5 17 5 1.0\nEEE 10 50 17 5 1.0\nECC 40 10 4 17 1.0\nRAA 4 17 100MEG\nRBB 17 5 100MEG\nISET 10 24 1e-3\nDA1 24 23 DMOD1\nRBAL 23 22 1000\nESUPP 22 21 4 5 1.0\nVOFF 21 10 -1.25\nDA2 24 25 DMOD1\nVSENS1 25 26 DC 0\nRSET 26 10 1K\nCSET 26 10 1e-10\nFSET 10 31 VSENS1 1.0\nR001 34 10 1K\nFTEMP 10 27 VSENS1 1.0\nDTA 27 10 DMOD2\nDTB 28 29 DMOD2\nVTEMP 29 10 DC 0\nECMR 38 10 11 10 1.0\nVCMX 38 39 DC 0\nRCM2 41 10 1MEG\nEPSR 42 10 4 10 1.0\nCDC1 43 42 10U\nVPSX 43 44 DC 0\nRPSR2 45 10 1MEG\nFCXX 57 10 VCXX 100\nDCX1 98 97 DMOD1\nDCX2 95 94 DMOD1\nRCX1 99 98 100\nRCX2 94 99 100\nVCXX 99 96 DC 0\nECMX 96 10 11 10 1.0\nDLIM1 52 57 DMOD1\nDLIM2 57 51 DMOD1\nELIMP 51 10 26 10 99.3\nGDM 10 57 3 2 1\nC1 58 59 1e-10\nDCLMP2 59 40 DMOD1\nDCLMP1 50 59 DMOD1\nRO2 59 10 1K\nGO3 10 71 59 10 1\nRO3 71 10 1\nDDN1 73 74 DMOD1\nDDN2 73 710 DMOD1\nDDP1 75 72 DMOD1\nDDP2 71 720 DMOD1\nRDN2 710 71 100\nRDP 720 72 100\nVOOP 40 76 DC 0\nVOON 77 50 DC 0\nQNO 76 73 78 NPN1\nQNP 77 72 79 PNP1\nRNO 78 81 1\nRPO 79 81 1\nVOX 86 6 DC 0\nRNT 76 81 100MEG\nRPT 81 77 1MEG\nFX 10 93 VOX 1.0\nDFX1 93 91 DMOD1\nVFX1 91 10 DC 0\nDFX2 92 93 DMOD1\nVFX2 10 92 DC 0\nFPX 4 10 VFX1 1.0\nFNX 10 5 VFX2 1.0\nRAX 122 10 MRAX 1.006000e+03\n.MODEL MRAX RES (TC1=-1.1e-05)\nFIN1 18 5 VTEMP 0.985\nFIN2 19 5 VTEMP 1.015\nCIN1 2 10 1e-12\nCIN2 3 10 1e-12\nRD1 18 11 2.45e+06\nRD2 19 11 2.45e+06\nRCM 11 10 3.8775e+07\nFCMR 10 57 VCMX 3.16228\nFPSR 10 57 VPSX 63.2456\nRSLOPE 4 5 33333.3\nGPWR 4 5 26 10 0.0016\nETEMP 27 28 32 33 0.178427\nRIB 32 33 MRIB 1K\n.MODEL MRIB RES (TC1=0.00389579)\nRISC 33 34 MRISC 1K\n.MODEL MRISC RES (TC1=-0.002)\nRCM1 39 41 10\nCCM 41 10 2.65258e-11\nRPSR1 44 45 100\nCPSR 45 10 1.59155e-10\nELIMN 10 52 26 10 91.8926\nRDM 57 10 23.5073\nC2 57 10 4.78743e-11\nECMP 40 97 26 10 2\nECMN 95 50 26 10 2\nG2 58 10 57 10 0.00378\nR2 58 10 11.254\nGO2 59 10 58 10 35\nEPOS 40 74 26 10 1.4\nENEG 75 50 26 10 1.5\nGSOURCE 74 73 33 34 0.00135\nGSINK 72 75 33 34 0.00135\nROO 81 86 13\n.MODEL DMOD1 D\n*-- DMOD1 DEFAULT PARAMETERS\n*IS=1e-14 RS=0 N=1 TT=0 CJO=0\n*VJ=1 M=0.5 EG=1.11 XTI=3 FC=0.5\n*KF=0 AF=1 BV=inf IBV=1e-3 TNOM=27\n.MODEL DMOD2 D  (IS=1e-17)\n*-- DMOD2 DEFAULT PARAMETERS\n*RS=0 N=1 TT=0 CJO=0\n*VJ=1 M=0.5 EG=1.11 XTI=3 FC=0.5\n*KF=0 AF=1 BV=inf IBV=1e-3 TNOM=27\n.MODEL NPN1 NPN (BF=100 IS=1e-15)\n*-- NPN1 DEFAULT PARAMETERS\n*NF=1 VAF=inf IKF=inf ISE=0 NE=1.5\n*BR=1 NR=1 VAR=inf IKR=inf ISC=0\n*NC=2 RB=0 IRB=inf RBM=0 RE=0 RC=0\n*CJE=0 VJE=0.75 MJE=0.33 TF=0 XTF=0\n*VTF=inf ITF=0 PTF=0 CJC=0 VJC=0.75\n*MJC=0.33 XCJC=1 TR=0 CJS=0 VJS=0.75\n*MJS=0 XTB=0 EG=1.11 XTI=3 KF=0 AF=1\n*FC=0.5 TNOM=27\n.MODEL PNP1 PNP (BF=100 IS=1e-15)\n*-- PNP1 DEFAULT PARAMETERS\n*NF=1 VAF=inf IKF=inf ISE=0 NE=1.5\n*BR=1 NR=1 VAR=inf IKR=inf ISC=0\n*NC=2 RB=0 IRB=inf RBM=0 RE=0 RC=0\n*CJE=0 VJE=0.75 MJE=0.33 TF=0 XTF=0\n*VTF=inf ITF=0 PTF=0 CJC=0 VJC=0.75\n*MJC=0.33 XCJC=1 TR=0 CJS=0 VJS=0.75\n*MJS=0 XTB=0 EG=1.11 XTI=3 KF=0 AF=1\n*FC=0.5 TNOM=27\n.ENDS\n*$
TEXT 4728 -192 Left 6 ;Regulator module
TEXT 4936 512 Left 2 ;NC
TEXT 4936 448 Left 2 ;NO
TEXT 4984 296 Left 2 ;Relay
TEXT 2176 800 Left 1 ;Must be a voltage source for some reason,\nnot the CmpOut signal
TEXT 1456 552 Left 1 ;For noise
TEXT 936 592 Left 2 ;NC
TEXT 936 528 Left 2 ;NO
TEXT 984 376 Left 2 ;Relay
TEXT 2264 528 Left 2 ;8R
LINE Normal 2000 352 2176 352 2
LINE Normal 2000 672 2000 352 2
LINE Normal 2144 672 2000 672 2
LINE Normal 2176 672 2144 672 2
LINE Normal 2176 352 2176 672 2
LINE Normal 4928 320 5104 320 2
LINE Normal 4928 640 4928 320 2
LINE Normal 5072 640 4928 640 2
LINE Normal 5104 640 5072 640 2
LINE Normal 5104 320 5104 640 2
LINE Normal 928 400 1104 400 2
LINE Normal 928 720 928 400 2
LINE Normal 1072 720 928 720 2
LINE Normal 1104 720 1072 720 2
LINE Normal 1104 400 1104 720 2
