Version 4
SHEET 1 14432 10312
WIRE 2176 -368 2032 -368
WIRE 2400 -368 2176 -368
WIRE 2512 -368 2400 -368
WIRE 2400 -352 2400 -368
WIRE 2176 -336 2176 -368
WIRE 2176 -240 2176 -272
WIRE 2400 -240 2400 -272
WIRE 2512 -240 2400 -240
WIRE 2400 -224 2400 -240
WIRE 2976 -144 2944 -144
WIRE 3248 -144 2976 -144
WIRE 2400 -128 2400 -160
WIRE 2976 -112 2976 -144
WIRE 4416 -64 4384 -64
WIRE 3248 -32 3248 -144
WIRE 4480 -32 4352 -32
WIRE 2976 -16 2976 -32
WIRE 2976 -16 2944 -16
WIRE 3216 -16 2976 -16
WIRE 3392 0 3280 0
WIRE 3440 0 3392 0
WIRE 3568 0 3520 0
WIRE 2176 16 2096 16
WIRE 2288 16 2176 16
WIRE 2576 16 2544 16
WIRE 2656 16 2576 16
WIRE 3216 16 3200 16
WIRE 4416 16 4416 -64
WIRE 3104 32 3072 32
WIRE 3200 32 3200 16
WIRE 3200 32 3184 32
WIRE 4352 32 4352 -32
WIRE 4384 32 4352 32
WIRE 2176 48 2176 16
WIRE 2576 48 2576 16
WIRE 4480 48 4480 -32
WIRE 4480 48 4448 48
WIRE 4512 48 4480 48
WIRE 4384 64 4352 64
WIRE 2976 80 2976 -16
WIRE 4512 80 4512 48
WIRE 3200 96 3200 32
WIRE 3264 96 3200 96
WIRE 3392 96 3392 0
WIRE 3392 96 3344 96
WIRE 4416 112 4416 80
WIRE 4752 128 4720 128
WIRE 2176 144 2176 112
WIRE 2416 144 2416 112
WIRE 2576 144 2576 128
WIRE 2576 144 2416 144
WIRE 2416 160 2416 144
WIRE 4720 176 4720 128
WIRE 4688 192 4656 192
WIRE 4896 208 4752 208
WIRE 5088 208 4896 208
WIRE 5232 208 5088 208
WIRE 5376 208 5296 208
WIRE 5552 208 5456 208
WIRE 4512 224 4512 160
WIRE 4512 224 4496 224
WIRE 4688 224 4512 224
WIRE 4896 240 4896 208
WIRE 5088 240 5088 208
WIRE 2416 256 2416 240
WIRE 2976 256 2976 144
WIRE 3072 256 2976 256
WIRE 3248 256 3248 32
WIRE 3248 256 3072 256
WIRE 4512 256 4512 224
WIRE 3072 288 3072 256
WIRE 2032 352 2032 -368
WIRE 2096 352 2096 16
WIRE 2256 352 2224 352
WIRE 2352 352 2320 352
WIRE 4512 352 4512 336
WIRE 4608 352 4512 352
WIRE 4720 352 4720 240
WIRE 4720 352 4608 352
WIRE 4896 352 4896 320
WIRE 4896 352 4720 352
WIRE 5088 352 5088 320
WIRE 5088 352 4896 352
WIRE 4608 384 4608 352
WIRE 1216 400 1184 400
WIRE 1312 400 1280 400
WIRE 2256 400 2256 352
WIRE 2320 400 2320 352
WIRE 2320 400 2304 400
WIRE 1216 448 1216 400
WIRE 1280 448 1280 400
WIRE 1280 448 1264 448
WIRE 1728 448 1616 448
WIRE 1920 448 1808 448
WIRE 2240 448 2176 448
WIRE 2368 448 2320 448
WIRE 1328 496 1280 496
WIRE 1616 496 1616 448
WIRE 2096 496 2096 416
WIRE 2176 496 2096 496
WIRE 2368 496 2368 448
WIRE 2416 496 2368 496
WIRE 2544 496 2416 496
WIRE 2640 496 2624 496
WIRE 2736 496 2640 496
WIRE 2880 496 2800 496
WIRE 2944 496 2880 496
WIRE 3008 496 2944 496
WIRE 3200 496 3088 496
WIRE 3376 496 3200 496
WIRE 3536 496 3376 496
WIRE 3680 496 3536 496
WIRE 5344 496 3680 496
WIRE 5600 496 5440 496
WIRE 5824 496 5664 496
WIRE 6128 496 5824 496
WIRE 6272 496 6128 496
WIRE 3536 512 3536 496
WIRE 2096 528 2096 496
WIRE 4368 528 4336 528
WIRE 2176 544 2176 496
WIRE 2240 544 2176 544
WIRE 2368 544 2368 496
WIRE 2368 544 2320 544
WIRE 5824 544 5824 496
WIRE 2640 560 2640 496
WIRE 2880 560 2880 496
WIRE 3376 560 3376 496
WIRE 4368 560 4368 528
WIRE 1328 592 1328 496
WIRE 1328 592 1280 592
WIRE 1920 592 1920 448
WIRE 2320 592 2304 592
WIRE 2944 592 2944 496
WIRE 1504 608 1504 448
WIRE 1616 608 1616 576
WIRE 1616 608 1504 608
WIRE 3536 608 3536 592
WIRE 6128 608 6128 496
WIRE 1280 640 1264 640
WIRE 1616 640 1616 608
WIRE 2032 640 2032 416
WIRE 2096 640 2096 608
WIRE 2096 640 2032 640
WIRE 2144 640 2144 544
WIRE 2144 640 2096 640
WIRE 2224 640 2224 352
WIRE 2240 640 2224 640
WIRE 2256 640 2256 592
WIRE 2256 640 2240 640
WIRE 2320 640 2320 592
WIRE 2336 640 2320 640
WIRE 2352 640 2352 352
WIRE 2352 640 2336 640
WIRE 2096 672 2096 640
WIRE 4368 672 4368 640
WIRE 4368 672 4256 672
WIRE 4480 672 4368 672
WIRE 4592 672 4480 672
WIRE 1184 688 1184 400
WIRE 1216 688 1216 640
WIRE 1216 688 1184 688
WIRE 1280 688 1280 640
WIRE 1312 688 1312 400
WIRE 1312 688 1280 688
WIRE 2640 688 2640 624
WIRE 2720 688 2640 688
WIRE 2880 688 2880 624
WIRE 2880 688 2784 688
WIRE 5392 688 5392 560
WIRE 5552 688 5392 688
WIRE 5824 688 5824 624
WIRE 2240 704 2240 640
WIRE 2256 704 2240 704
WIRE 2336 704 2336 640
WIRE 2336 704 2320 704
WIRE 3376 704 3376 640
WIRE 4256 704 4256 672
WIRE 3200 720 3200 496
WIRE 4480 720 4480 672
WIRE 5552 720 5552 688
WIRE 1968 752 1968 528
WIRE 1984 752 1984 528
WIRE 2336 752 2336 704
WIRE 2640 752 2640 688
WIRE 2944 752 2944 656
WIRE 2944 752 2640 752
WIRE 4592 752 4592 672
WIRE 4624 752 4592 752
WIRE 2240 768 2240 704
WIRE 5648 768 5616 768
WIRE 2944 784 2944 752
WIRE 1616 800 1616 720
WIRE 1760 800 1616 800
WIRE 1920 800 1920 672
WIRE 1920 800 1760 800
WIRE 4256 800 4256 784
WIRE 5152 800 5120 800
WIRE 5824 800 5824 768
WIRE 6016 800 5824 800
WIRE 6128 800 6128 688
WIRE 6128 800 6016 800
WIRE 6272 800 6128 800
WIRE 1760 832 1760 800
WIRE 4480 832 4480 800
WIRE 4592 832 4480 832
WIRE 5152 832 5152 800
WIRE 2336 848 2336 832
WIRE 3376 848 3376 768
WIRE 5120 848 5088 848
WIRE 5824 848 5824 800
WIRE 6016 848 6016 800
WIRE 5232 864 5184 864
WIRE 5392 864 5392 688
WIRE 5392 864 5312 864
WIRE 5424 864 5392 864
WIRE 5552 864 5552 816
WIRE 2096 880 2096 752
WIRE 2880 880 2880 688
WIRE 2880 880 2096 880
WIRE 4368 880 4368 672
WIRE 4480 880 4480 832
WIRE 5120 880 5088 880
WIRE 4256 912 4256 880
WIRE 4336 912 4256 912
WIRE 5152 928 5152 896
WIRE 1760 944 1760 912
WIRE 3040 944 3008 944
WIRE 4256 944 4256 912
WIRE 3200 960 3200 800
WIRE 5424 960 5424 864
WIRE 5824 960 5824 928
WIRE 3040 976 3040 944
WIRE 3008 992 2976 992
WIRE 3136 1008 3072 1008
WIRE 6016 1008 6016 928
WIRE 3008 1024 2976 1024
WIRE 4256 1056 4256 1024
WIRE 4368 1056 4368 944
WIRE 4368 1056 4256 1056
WIRE 4480 1056 4480 960
WIRE 4480 1056 4368 1056
WIRE 3040 1072 3040 1040
WIRE 4784 1072 4752 1072
WIRE 5008 1072 4784 1072
WIRE 5824 1072 5824 1040
WIRE 3200 1088 3200 1056
WIRE 4368 1088 4368 1056
WIRE 4784 1088 4784 1072
WIRE 5424 1152 5424 1040
WIRE 5008 1168 5008 1072
WIRE 4784 1184 4784 1168
WIRE 4976 1184 4784 1184
WIRE 5120 1200 5040 1200
WIRE 5232 1200 5184 1200
WIRE 5248 1200 5232 1200
WIRE 5360 1200 5328 1200
WIRE 4976 1216 4944 1216
WIRE 4784 1248 4784 1184
WIRE 5008 1264 5008 1232
WIRE 5232 1280 5232 1200
WIRE 5424 1312 5424 1248
WIRE 4784 1376 4784 1328
WIRE 5232 1408 5232 1360
FLAG 6016 1008 0
FLAG 1760 944 0
FLAG 2416 496 IN+
FLAG 6272 496 OUT+
IOPIN 6272 496 Out
FLAG 3072 32 OUT+
IOPIN 3072 32 In
FLAG 3072 288 0
FLAG 4368 1088 0
FLAG 3568 0 CmpOut1
IOPIN 3568 0 Out
FLAG 2512 752 CmpOut1
IOPIN 2512 752 In
FLAG 2096 880 IN-
FLAG 2944 784 0
FLAG 3536 608 0
FLAG 2240 768 0
FLAG 2944 -16 +15V
FLAG 2512 -368 +18V
FLAG 2400 -128 0
FLAG 2512 -240 +5V
FLAG 2176 144 0
FLAG 2176 -240 0
FLAG 4608 384 0
FLAG 4624 752 Vref
IOPIN 4624 752 Out
FLAG 4352 64 Vref
IOPIN 4352 64 In
FLAG 5088 848 OUT+
IOPIN 5088 848 In
FLAG 4656 192 OUT+
IOPIN 4656 192 In
FLAG 4416 112 0
FLAG 5552 208 CmpOut2
IOPIN 5552 208 Out
FLAG 2336 848 0
FLAG 2944 -144 +31V
IOPIN 2944 -144 In
FLAG 4496 224 VrefSCP
FLAG 4336 528 +31V
IOPIN 4336 528 In
FLAG 4384 -64 +31V
IOPIN 4384 -64 In
FLAG 4752 128 +31V
IOPIN 4752 128 In
FLAG 3200 1088 0
FLAG 2976 1024 OUT+
IOPIN 2976 1024 In
FLAG 5088 880 Vref
IOPIN 5088 880 In
FLAG 2976 992 Vref
IOPIN 2976 992 In
FLAG 5152 928 0
FLAG 3040 1072 0
FLAG 5120 800 +31V
IOPIN 5120 800 In
FLAG 3008 944 +31V
IOPIN 3008 944 In
FLAG 3680 496 Vunreg
FLAG 4752 1072 +31V
IOPIN 4752 1072 In
FLAG 5008 1264 0
FLAG 4784 1376 0
FLAG 6272 800 OUT-
IOPIN 6272 800 Out
FLAG 5552 864 0
FLAG 5648 768 CmpOut2
IOPIN 5648 768 In
FLAG 4944 1216 OUT-
IOPIN 4944 1216 In
FLAG 5424 1312 0
FLAG 5232 1408 0
FLAG 2416 256 0
FLAG 2656 16 +31V
IOPIN 2656 16 Out
FLAG 5824 1072 0
FLAG 3376 848 0
SYMBOL polcap 2928 592 R0
WINDOW 3 24 56 Left 2
SYMATTR Value 45m
SYMATTR InstName C1
SYMATTR Description Capacitor
SYMATTR Type cap
SYMATTR SpiceLine V=35 Irms=3.355 Rser=0.004 Lser=14.3824n
SYMBOL schottky 2736 512 R270
WINDOW 0 32 32 VTop 2
WINDOW 3 0 32 VBottom 2
SYMATTR InstName D1
SYMATTR Value B560C
SYMATTR Description Diode
SYMATTR Type diode
SYMBOL res 6000 832 R0
SYMATTR InstName Rsense
SYMATTR Value 0.1
SYMBOL schottky 2656 624 R180
WINDOW 0 24 64 Left 2
WINDOW 3 24 0 Left 2
SYMATTR InstName D4
SYMATTR Value B560C
SYMATTR Description Diode
SYMATTR Type diode
SYMBOL voltage 1616 480 R0
WINDOW 123 0 0 Left 0
WINDOW 39 24 124 Left 2
SYMATTR SpiceLine Rser=0.1
SYMATTR InstName V3
SYMATTR Value SINE(0 10 500 0 0 1)
SYMBOL ind2 1936 688 R180
WINDOW 0 36 80 Left 2
WINDOW 3 36 40 Left 2
SYMATTR InstName L1
SYMATTR Value 270
SYMATTR Type ind
SYMBOL ind2 2112 768 R180
WINDOW 0 36 80 Left 2
WINDOW 3 36 40 Left 2
SYMATTR InstName L2
SYMATTR Value 1
SYMATTR Type ind
SYMBOL ind2 2112 624 R180
WINDOW 0 36 80 Left 2
WINDOW 3 36 40 Left 2
SYMATTR InstName L3
SYMATTR Value 1
SYMATTR Type ind
SYMBOL res 1712 464 R270
WINDOW 0 32 56 VTop 2
WINDOW 3 0 56 VBottom 2
SYMATTR InstName R2
SYMATTR Value 0.001
SYMBOL sw 2224 544 R270
WINDOW 0 -16 15 Right 2
WINDOW 3 -11 113 Right 2
SYMATTR InstName RelS2
SYMATTR Value SwNC
SYMBOL res 1744 816 R0
SYMATTR InstName R5
SYMATTR Value 10000000Meg
SYMBOL res 2960 -128 R0
SYMATTR InstName R3
SYMATTR Value 2k
SYMBOL sw 2224 448 M90
WINDOW 0 -85 16 Left 2
WINDOW 3 -81 112 Left 2
SYMATTR InstName RelS1
SYMATTR Value SwNO
SYMBOL OpAmp\\LM358_TI 5152 864 R0
SYMATTR InstName U1
SYMATTR Value LM6171A/NS
SYMBOL schottky 2720 704 R270
WINDOW 0 32 32 VTop 2
WINDOW 3 0 32 VBottom 2
SYMATTR InstName D3
SYMATTR Value B560C
SYMATTR Description Diode
SYMATTR Type diode
SYMBOL schottky 2896 624 R180
WINDOW 0 24 64 Left 2
WINDOW 3 24 0 Left 2
SYMATTR InstName D2
SYMATTR Value B560C
SYMATTR Description Diode
SYMATTR Type diode
SYMBOL res 3536 496 R0
SYMATTR InstName RL1
SYMATTR Value 25
SYMBOL res 2528 512 R270
WINDOW 0 32 56 VTop 2
WINDOW 3 0 56 VBottom 2
SYMATTR InstName R1
SYMATTR Value 0.001
SYMBOL schottky 2112 416 R180
WINDOW 0 -53 64 Left 2
WINDOW 3 -66 0 Left 2
SYMATTR InstName D5
SYMATTR Value B560C
SYMATTR Description Diode
SYMATTR Type diode
SYMBOL zener 2960 144 M180
WINDOW 0 42 35 Left 2
WINDOW 3 24 0 Left 2
SYMATTR InstName D12
SYMATTR Value BZX84C15L
SYMBOL zener 2384 -160 M180
WINDOW 0 42 35 Left 2
WINDOW 3 24 0 Left 2
SYMATTR InstName D8
SYMATTR Value UMZ5_1N
SYMBOL schottky 2048 416 R180
WINDOW 0 24 64 Left 2
WINDOW 3 24 0 Left 2
SYMATTR InstName D13
SYMATTR Value B560C
SYMATTR Description Diode
SYMATTR Type diode
SYMBOL res 2384 -368 R0
SYMATTR InstName R_Fan
SYMATTR Value 71
SYMBOL voltage 1616 624 R0
WINDOW 123 24 124 Left 2
WINDOW 39 24 152 Left 2
SYMATTR Value2 AC 230 0
SYMATTR SpiceLine Rser=0.1
SYMATTR InstName V1
SYMATTR Value SINE(0 325.57 50)
SYMBOL res 4352 544 R0
SYMATTR InstName R19
SYMATTR Value 560
SYMBOL res 5216 880 R270
WINDOW 0 32 56 VTop 2
WINDOW 3 0 56 VBottom 2
SYMATTR InstName R2_B
SYMATTR Value 0.001
SYMBOL cap 2160 -336 R0
SYMATTR InstName C4
SYMATTR Value 3m
SYMATTR SpiceLine V=35
SYMBOL cap 2160 48 R0
SYMATTR InstName C2
SYMATTR Value 10m
SYMATTR SpiceLine V=35
SYMBOL res 4496 240 R0
SYMATTR InstName R_Pot2_2
SYMATTR Value 0
SYMBOL res 4496 64 R0
SYMATTR InstName R_Pot2_1
SYMATTR Value 10k
SYMBOL res 4240 784 R0
SYMATTR InstName R_Pot1
SYMATTR Value 22k
SYMBOL res 4240 928 R0
SYMATTR InstName R11
SYMATTR Value 2k
SYMBOL OpAmp\\LM358_TI 4416 48 R0
SYMATTR InstName U4
SYMATTR Value LM6171A/NS
SYMBOL res 4240 688 R0
SYMATTR InstName R10
SYMATTR Value 0
SYMBOL voltage 2320 736 R0
WINDOW 123 0 0 Left 0
WINDOW 39 0 0 Left 0
SYMATTR InstName V2
SYMATTR Value PULSE(12.5 0 0 0 0 0.1 0.2)
SYMBOL sw 1184 592 R270
WINDOW 0 -16 15 Right 2
WINDOW 3 -11 113 Right 2
SYMATTR InstName RelS5
SYMATTR Value SwNC
SYMBOL sw 1184 496 M90
WINDOW 0 -85 16 Left 2
WINDOW 3 -81 112 Left 2
SYMATTR InstName RelS6
SYMATTR Value SwNO
SYMBOL res 3200 16 R90
WINDOW 0 0 56 VBottom 2
WINDOW 3 32 56 VTop 2
SYMATTR InstName R6
SYMATTR Value 1k
SYMBOL res 3360 80 R90
WINDOW 0 0 56 VBottom 2
WINDOW 3 32 56 VTop 2
SYMATTR InstName R7
SYMATTR Value 20k
SYMBOL res 2992 512 R270
WINDOW 0 32 56 VTop 2
WINDOW 3 0 56 VBottom 2
SYMATTR InstName R51
SYMATTR Value 0.001
SYMBOL res 6112 592 R0
SYMATTR InstName RL2
SYMATTR Value 200
SYMBOL res 4880 224 R0
SYMATTR InstName R4
SYMATTR Value 20k
SYMBOL npn 5616 720 M0
SYMATTR InstName Q7
SYMATTR Value 2N2222
SYMBOL res 3424 16 R270
WINDOW 0 32 56 VTop 2
WINDOW 3 0 56 VBottom 2
SYMATTR InstName R21
SYMATTR Value 1.2k
SYMBOL LED 5232 224 R270
WINDOW 0 32 32 VTop 2
WINDOW 3 0 32 VBottom 2
SYMATTR InstName LED2
SYMATTR Value LXK2-PW14
SYMATTR Description Diode
SYMATTR Type diode
SYMBOL LED 5120 1184 M90
WINDOW 0 0 32 VBottom 2
WINDOW 3 72 32 VTop 2
SYMATTR InstName LED3
SYMATTR Value LXK2-PW14
SYMATTR Description Diode
SYMATTR Type diode
SYMBOL res 4464 864 R0
SYMATTR InstName R12
SYMATTR Value 10k
SYMBOL res 4464 704 R0
SYMATTR InstName R8
SYMATTR Value 100k
SYMBOL res 5808 528 R0
SYMATTR InstName R18
SYMATTR Value 313k
SYMBOL res 5808 672 R0
SYMATTR InstName R_Meter1
SYMATTR Value 691
SYMBOL res 3184 704 R0
SYMATTR InstName R9
SYMATTR Value 47
SYMBOL npn 3136 960 R0
SYMATTR InstName Q3
SYMATTR Value TIP142
SYMATTR Prefix X
SYMBOL npn 5344 560 R270
SYMATTR InstName Q1
SYMATTR Value TIP33C
SYMBOL res 4768 1072 R0
SYMATTR InstName R15
SYMATTR Value 300k
SYMBOL REF\\TL431 4352 880 R0
SYMATTR InstName U8
SYMBOL res 4768 1232 R0
SYMATTR InstName R_Pot3
SYMATTR Value 2.5k
SYMBOL OpAmp\\LM358_AB 5008 1136 R0
SYMATTR InstName U5
SYMBOL npn 5360 1152 R0
SYMATTR InstName Q2
SYMATTR Value 2N2222
SYMBOL res 5232 1216 R270
WINDOW 0 32 56 VTop 2
WINDOW 3 0 56 VBottom 2
SYMATTR InstName R20
SYMATTR Value 10k
SYMBOL res 5408 944 R0
SYMATTR InstName R13
SYMATTR Value 0.001
SYMBOL res 5216 1264 R0
SYMATTR InstName R14
SYMATTR Value 560
SYMBOL diode 2256 720 R270
WINDOW 0 32 32 VTop 2
WINDOW 3 0 32 VBottom 2
SYMATTR InstName D5
SYMATTR Value 1N4148
SYMBOL OpAmp\\LM358_AB 4720 144 R0
SYMATTR InstName U2
SYMBOL OpAmp\\LM358_AB 3248 -64 R0
SYMATTR InstName U3
SYMBOL OpAmp\\LM358_AB 3040 944 R0
SYMATTR InstName U6
SYMBOL res 2560 32 R0
SYMATTR InstName R16
SYMATTR Value 985
SYMBOL VolReg\\LM317-1 2416 16 R0
SYMATTR InstName U7
SYMBOL res 2400 144 R0
SYMATTR InstName R17
SYMATTR Value 23k
SYMBOL schottky 5600 512 R270
WINDOW 0 32 32 VTop 2
WINDOW 3 0 32 VBottom 2
SYMATTR InstName D6
SYMATTR Value B560C
SYMATTR Description Diode
SYMATTR Type diode
SYMBOL res 5808 832 R0
SYMATTR InstName R22
SYMATTR Value 2.45k
SYMBOL res 5808 944 R0
SYMATTR InstName R_Meter2
SYMATTR Value 691
SYMBOL res 5360 224 R270
WINDOW 0 32 56 VTop 2
WINDOW 3 0 56 VBottom 2
SYMATTR InstName R23
SYMATTR Value 1k
SYMBOL res 3360 544 R0
SYMATTR InstName R24
SYMATTR Value 2k
SYMBOL LED 3360 704 R0
SYMATTR InstName LED1
SYMATTR Value LXK2-PW14
SYMATTR Description Diode
SYMATTR Type diode
TEXT 2640 920 Left 2 !.tran 0.25
TEXT 1872 848 Left 2 !K1 L1 L2 L3 1
TEXT 1728 1048 Left 2 !; For the relays\n.MODEL SwNO SW(Ron=10m Roff=1000Meg Vt=12 Vh=.5 Lser=10n Vser=.6)\n.MODEL SwNC SW(Roff=10m Ron=1000Meg Vt=0.5 Vh=.5 Lser=10n Vser=.6)
TEXT 1128 1040 Left 2 !**************************************\n*      Model Generated by MODPEX     *\n*Copyright(c) Symmetry Design Systems*\n*         All Rights Reserved        *\n*    UNPUBLISHED LICENSED SOFTWARE   *\n*   Contains Proprietary Information *\n*      Which is The Property of      *\n*     SYMMETRY OR ITS LICENSORS      *\n*    Modeling services provided by   *\n* Interface Technologies www.i-t.com *\n**************************************\n.SUBCKT TIP142 1 2 3\n* Model generated on Feb  8, 2004\n* Model format: PSpice\n* Darlington macro model\n* External node designations\n* Node 1 -> Collect\n* Node 2 -> Base\n* Node 3 -> Emitter\nQ1 1 2 4 qmodel\nQ2 1 4 3 q1model 19.6725\nD1 3 1 dmodel\nR1 2 4 8000\nR2 4 3 40\n* Default values used in dmodel\n*   EG=1.11 TT=0 BV=infinite\n.MODEL dmodel d\n+IS=1e-12 RS=10 N=1 XTI=3\n+CJO=0 VJ=0.75 M=0.33 FC=0.5\n.MODEL qmodel npn\n+IS=2.92836e-16 BF=233.76 NF=1.2 VAF=1000\n+IKF=0.222129 ISE=4.61322e-11 NE=2.48158 BR=1.89854\n+NR=0.75 VAR=168.458 IKR=0.108495 ISC=9.99999e-14\n+NC=2.00001 RB=7.90758 IRB=0.2 RBM=7.90758\n+RE=0.275456 RC=1.42279 XTB=0.232595 XTI=3.02293 EG=1.206\n+CJE=1e-11 VJE=0.75 MJE=0.33 TF=1e-09\n+XTF=1 VTF=10 ITF=0.01 CJC=1.67157e-09\n+VJC=0.95 MJC=0.23 XCJC=0.9 FC=0.5\n+TR=1e-07 PTF=0 KF=0 AF=1\n.MODEL q1model npn\n+IS=2.92836e-16 BF=233.76 NF=1.2 VAF=1000\n+IKF=0.222129 ISE=4.61322e-11 NE=2.48158 BR=1.89854\n+NR=0.75 VAR=168.458 IKR=0.108495 ISC=9.99999e-14\n+NC=2.00001 RB=7.90758 IRB=0.2 RBM=7.90758\n+RE=0.275456 RC=1.42279 XTB=0.232595 XTI=3.02293 EG=1.206\n+CJE=1e-11 VJE=0.75 MJE=0.33 TF=1e-09\n+XTF=1 VTF=10 ITF=0.01 CJC=0\n+VJC=0.95 MJC=0.23 XCJC=0.9 FC=0.5\n+TR=1e-07 PTF=0 KF=0 AF=1\n.ENDS
TEXT 2256 632 Left 2 ;Relay
TEXT 2440 472 Left 2 ;NTCR1
TEXT 2344 688 Left 0 ;Diode here to protect from the coil's back "infinite" EMF
TEXT 2216 528 Left 2 ;NC
TEXT 2216 464 Left 2 ;NO
TEXT 4544 0 Left 1 ;Short-circuit protection (SCP)
TEXT 2424 -264 Left 0 ;18 - 5 = 13 V --> Fan voltage
TEXT 2448 -472 Left 6 ;Unregulated module
TEXT 104 -88 Left 2 !*//////////////////////////////////////////////////////////////////////\n* (C) National Semiconductor, Inc.\n* Models developed and under copyright by:\n* National Semiconductor, Inc.  \n*/////////////////////////////////////////////////////////////////////\n* Legal Notice: This material is intended for free software support.\n* The file may be copied, and distributed; however, reselling the \n*  material is illegal\n*////////////////////////////////////////////////////////////////////\n* For ordering or technical information on these models, contact:\n* National Semiconductor's Customer Response Center\n*                 7:00 A.M.--7:00 P.M.  U.S. Central Time\n*                                (800) 272-9959\n* For Applications support, contact the Internet address:\n*  Appshelp@galaxy.nsc.com\n*/////////////////////////////////////////\n*LM6171A Operational Amplifier Macro-Model\n*/////////////////////////////////////////\n*\n*Connections       non-inverting input\n*                  | inverting input\n*                  | |  positive power supply\n*                  | | |  negative power supply\n*                  | | | |  output\n*                  | | | | |\n.SUBCKT LM6171A/NS 3 2 4 5 6\n* CAUTION:  SET .OPTIONS GMIN=1E-16 TO CORRECTLY MODEL INPUT BIAS CURRENT.\n* Features:\n* +/-15V Operation\n* Unity Gain Stable\n* Offset voltage (max) =             3mV\n* Gain-bandwidth product =           100 MHz \n* Supply current =                   2.5mA\n* Slew rate =                        3600V/uS\n* Open Loop gain =                   90dB\n********************************************************************\nEOX 120 10 31 32 2.0\nRCX 120 121 1K\nRDX 121 10 1K\nRBX 120 122 1K\nGOS 10 57 122 121 1.0\nRVOS 31 32 1K\nRINB 2 18 1000\nRINA 3 19 1000\nDIN1 5 18 DMOD2\nDIN2 18 4 DMOD2\nDIN3 5 19 DMOD2\nDIN4 19 4 DMOD2\nEXX 10 5 17 5 1.0\nEEE 10 50 17 5 1.0\nECC 40 10 4 17 1.0\nRAA 4 17 100MEG\nRBB 17 5 100MEG\nISET 10 24 1e-3\nDA1 24 23 DMOD1\nRBAL 23 22 1000\nESUPP 22 21 4 5 1.0\nVOFF 21 10 -1.25\nDA2 24 25 DMOD1\nVSENS1 25 26 DC 0\nRSET 26 10 1K\nCSET 26 10 1e-10\nFSET 10 31 VSENS1 1.0\nR001 34 10 1K\nFTEMP 10 27 VSENS1 1.0\nDTA 27 10 DMOD2\nDTB 28 29 DMOD2\nVTEMP 29 10 DC 0\nECMR 38 10 11 10 1.0\nVCMX 38 39 DC 0\nRCM2 41 10 1MEG\nEPSR 42 10 4 10 1.0\nCDC1 43 42 10U\nVPSX 43 44 DC 0\nRPSR2 45 10 1MEG\nFCXX 57 10 VCXX 100\nDCX1 98 97 DMOD1\nDCX2 95 94 DMOD1\nRCX1 99 98 100\nRCX2 94 99 100\nVCXX 99 96 DC 0\nECMX 96 10 11 10 1.0\nDLIM1 52 57 DMOD1\nDLIM2 57 51 DMOD1\nELIMP 51 10 26 10 99.3\nGDM 10 57 3 2 1\nC1 58 59 1e-10\nDCLMP2 59 40 DMOD1\nDCLMP1 50 59 DMOD1\nRO2 59 10 1K\nGO3 10 71 59 10 1\nRO3 71 10 1\nDDN1 73 74 DMOD1\nDDN2 73 710 DMOD1\nDDP1 75 72 DMOD1\nDDP2 71 720 DMOD1\nRDN2 710 71 100\nRDP 720 72 100\nVOOP 40 76 DC 0\nVOON 77 50 DC 0\nQNO 76 73 78 NPN1\nQNP 77 72 79 PNP1\nRNO 78 81 1\nRPO 79 81 1\nVOX 86 6 DC 0\nRNT 76 81 100MEG\nRPT 81 77 1MEG\nFX 10 93 VOX 1.0\nDFX1 93 91 DMOD1\nVFX1 91 10 DC 0\nDFX2 92 93 DMOD1\nVFX2 10 92 DC 0\nFPX 4 10 VFX1 1.0\nFNX 10 5 VFX2 1.0\nRAX 122 10 MRAX 1.006000e+03\n.MODEL MRAX RES (TC1=-1.1e-05)\nFIN1 18 5 VTEMP 0.985\nFIN2 19 5 VTEMP 1.015\nCIN1 2 10 1e-12\nCIN2 3 10 1e-12\nRD1 18 11 2.45e+06\nRD2 19 11 2.45e+06\nRCM 11 10 3.8775e+07\nFCMR 10 57 VCMX 3.16228\nFPSR 10 57 VPSX 63.2456\nRSLOPE 4 5 33333.3\nGPWR 4 5 26 10 0.0016\nETEMP 27 28 32 33 0.178427\nRIB 32 33 MRIB 1K\n.MODEL MRIB RES (TC1=0.00389579)\nRISC 33 34 MRISC 1K\n.MODEL MRISC RES (TC1=-0.002)\nRCM1 39 41 10\nCCM 41 10 2.65258e-11\nRPSR1 44 45 100\nCPSR 45 10 1.59155e-10\nELIMN 10 52 26 10 91.8926\nRDM 57 10 23.5073\nC2 57 10 4.78743e-11\nECMP 40 97 26 10 2\nECMN 95 50 26 10 2\nG2 58 10 57 10 0.00378\nR2 58 10 11.254\nGO2 59 10 58 10 35\nEPOS 40 74 26 10 1.4\nENEG 75 50 26 10 1.5\nGSOURCE 74 73 33 34 0.00135\nGSINK 72 75 33 34 0.00135\nROO 81 86 13\n.MODEL DMOD1 D\n*-- DMOD1 DEFAULT PARAMETERS\n*IS=1e-14 RS=0 N=1 TT=0 CJO=0\n*VJ=1 M=0.5 EG=1.11 XTI=3 FC=0.5\n*KF=0 AF=1 BV=inf IBV=1e-3 TNOM=27\n.MODEL DMOD2 D  (IS=1e-17)\n*-- DMOD2 DEFAULT PARAMETERS\n*RS=0 N=1 TT=0 CJO=0\n*VJ=1 M=0.5 EG=1.11 XTI=3 FC=0.5\n*KF=0 AF=1 BV=inf IBV=1e-3 TNOM=27\n.MODEL NPN1 NPN (BF=100 IS=1e-15)\n*-- NPN1 DEFAULT PARAMETERS\n*NF=1 VAF=inf IKF=inf ISE=0 NE=1.5\n*BR=1 NR=1 VAR=inf IKR=inf ISC=0\n*NC=2 RB=0 IRB=inf RBM=0 RE=0 RC=0\n*CJE=0 VJE=0.75 MJE=0.33 TF=0 XTF=0\n*VTF=inf ITF=0 PTF=0 CJC=0 VJC=0.75\n*MJC=0.33 XCJC=1 TR=0 CJS=0 VJS=0.75\n*MJS=0 XTB=0 EG=1.11 XTI=3 KF=0 AF=1\n*FC=0.5 TNOM=27\n.MODEL PNP1 PNP (BF=100 IS=1e-15)\n*-- PNP1 DEFAULT PARAMETERS\n*NF=1 VAF=inf IKF=inf ISE=0 NE=1.5\n*BR=1 NR=1 VAR=inf IKR=inf ISC=0\n*NC=2 RB=0 IRB=inf RBM=0 RE=0 RC=0\n*CJE=0 VJE=0.75 MJE=0.33 TF=0 XTF=0\n*VTF=inf ITF=0 PTF=0 CJC=0 VJC=0.75\n*MJC=0.33 XCJC=1 TR=0 CJS=0 VJS=0.75\n*MJS=0 XTB=0 EG=1.11 XTI=3 KF=0 AF=1\n*FC=0.5 TNOM=27\n.ENDS\n*$
TEXT 4728 -192 Left 6 ;Regulator module
TEXT 2384 784 Left 1 ;Must be a voltage source for some reason,\nnot the CmpOut signal
TEXT 1664 536 Left 1 ;For noise
TEXT 1176 576 Left 2 ;NC
TEXT 1176 512 Left 2 ;NO
TEXT 1224 360 Left 2 ;Relay
TEXT 2472 512 Left 2 ;8R
TEXT 3016 -168 Left 1 ;Winding switcher circuit
TEXT 4792 1048 Left 1 ;Overcurrent protection (OCP)
TEXT 5064 760 Left 1 ;Vref<->OUT regulator
TEXT 2192 1000 Left 2 ;"-M" means missing in the physical circuit
TEXT 1120 2528 Left 2 !*SYM=SCR\n*SRC=2N5064;2N5064;SCRs;TECCOR; 200V 0.8A \n.SUBCKT 2N5064   1 2 3\n*    TERMINALS:  A G K\nQP  6 4 1  POUT OFF\nQN  4 6 5  NOUT OFF\nRF  6 4    400K\nRR  1 4    267K\nRGK 6 5    80\nRG  2 6    9.09\nRK  3 5    0.112\nDF  6 4    ZF\nDR  1 4    ZR\nDGK 6 5    ZGK\n.MODEL ZF   D (IS=3.2E-16 IBV=100U BV=200)\n.MODEL ZR   D (IS=3.2E-16 IBV=100U BV=200)\n.MODEL ZGK  D (IS=3.2E-16 IBV=100U BV=5)\n.MODEL POUT PNP (IS=320F BF=1 CJE=402P TF=102U)\n.MODEL NOUT NPN (IS=320F BF=100 RC=0.45 CJE=2.01N CJC=402P TF=3.74U)\n.ENDS
TEXT 2472 -192 Left 1 ;1N5338B
TEXT 5368 568 Left 1 ;BDY20
TEXT 4984 272 Left 1 ;Button (to force disable the\nprotection after it's triggered)
TEXT 4496 816 Left 1 ;Switch here
TEXT 1112 3352 Left 2 !.MODEL TIP33C npn\n+IS=1e-09 BF=2530.91 NF=0.026029 VAF=10\n+IKF=0.0647102 ISE=1.00058e-09 NE=1.836 BR=0.1\n+NR=1.5 VAR=100 IKR=0.647102 ISC=1.00058e-09\n+NC=1.45279 RB=6.98719 IRB=6.81966 RBM=0.001\n+RE=0.0001 RC=0.0636828 XTB=15.7688 XTI=1\n+EG=1.05 CJE=3.26476e-10 VJE=0.446174 MJE=0.464223\n+TF=2.062e-09 XTF=15.0842 VTF=25.7317 ITF=0.001\n+CJC=3.07593e-10 VJC=0.775484 MJC=0.476498 XCJC=0.750493\n+FC=0.796407 CJS=0 VJS=0.75 MJS=0.5\n+TR=1e-07 PTF=0 KF=0 AF=1
TEXT 4984 1160 Left 1 ;LM358
TEXT 5720 1112 Left 1 ;Switch to choose between position R_Meter1 or R_Meter2
TEXT 5200 120 Left 2 ;Must be a 2k resistor!!! 20 mA max on the LEDs!
LINE Normal 2208 336 2384 336 2
LINE Normal 2208 656 2208 336 2
LINE Normal 2352 656 2208 656 2
LINE Normal 2384 656 2352 656 2
LINE Normal 2384 336 2384 656 2
LINE Normal 1168 384 1344 384 2
LINE Normal 1168 704 1168 384 2
LINE Normal 1312 704 1168 704 2
LINE Normal 1344 704 1312 704 2
LINE Normal 1344 384 1344 704 2
