Version 4
SHEET 1 14432 10312
WIRE 2144 -32 2032 -32
WIRE 2480 -32 2144 -32
WIRE 2592 -32 2480 -32
WIRE 2480 -16 2480 -32
WIRE 4192 -16 4160 -16
WIRE 2144 0 2144 -32
WIRE 4256 16 4128 16
WIRE 4192 64 4192 -16
WIRE 4128 80 4128 16
WIRE 4160 80 4128 80
WIRE 2144 96 2144 64
WIRE 2480 96 2480 64
WIRE 2592 96 2480 96
WIRE 4256 96 4256 16
WIRE 4256 96 4224 96
WIRE 4288 96 4256 96
WIRE 2480 112 2480 96
WIRE 4160 112 4128 112
WIRE 4560 112 4496 112
WIRE 4592 112 4560 112
WIRE 4288 128 4288 96
WIRE 4560 144 4560 112
WIRE 2144 160 2096 160
WIRE 2256 160 2144 160
WIRE 2336 160 2256 160
WIRE 4192 160 4192 128
WIRE 2144 192 2144 160
WIRE 2256 192 2256 160
WIRE 2480 208 2480 176
WIRE 4496 224 4496 112
WIRE 4288 240 4288 208
WIRE 4464 240 4288 240
WIRE 4560 256 4560 224
WIRE 4560 256 4528 256
WIRE 4608 256 4560 256
WIRE 4464 272 4432 272
WIRE 2144 288 2144 256
WIRE 2256 288 2256 256
WIRE 4288 288 4288 240
WIRE 4976 336 4944 336
WIRE 5072 336 5040 336
WIRE 2032 352 2032 -32
WIRE 2096 352 2096 160
WIRE 2256 352 2224 352
WIRE 2352 352 2320 352
WIRE 4976 384 4976 336
WIRE 5040 384 5040 336
WIRE 5040 384 5024 384
WIRE 1216 400 1184 400
WIRE 1312 400 1280 400
WIRE 2256 400 2256 352
WIRE 2320 400 2320 352
WIRE 2320 400 2304 400
WIRE 4288 400 4288 368
WIRE 4384 400 4288 400
WIRE 4496 400 4496 288
WIRE 4496 400 4384 400
WIRE 4384 432 4384 400
WIRE 4960 432 4880 432
WIRE 5088 432 5040 432
WIRE 1216 448 1216 400
WIRE 1280 448 1280 400
WIRE 1280 448 1264 448
WIRE 1728 448 1616 448
WIRE 1920 448 1808 448
WIRE 2240 448 2176 448
WIRE 2368 448 2320 448
WIRE 5088 480 5088 432
WIRE 5200 480 5088 480
WIRE 5440 480 5376 480
WIRE 5504 480 5440 480
WIRE 5728 480 5584 480
WIRE 5824 480 5728 480
WIRE 5952 480 5824 480
WIRE 1328 496 1280 496
WIRE 1616 496 1616 448
WIRE 2096 496 2096 416
WIRE 2176 496 2096 496
WIRE 2368 496 2368 448
WIRE 2416 496 2368 496
WIRE 2544 496 2416 496
WIRE 2640 496 2624 496
WIRE 2736 496 2640 496
WIRE 2880 496 2800 496
WIRE 2944 496 2880 496
WIRE 3072 496 2944 496
WIRE 3520 496 3152 496
WIRE 3728 496 3520 496
WIRE 3792 496 3728 496
WIRE 3728 512 3728 496
WIRE 2096 528 2096 496
WIRE 4960 528 4880 528
WIRE 5088 528 5088 480
WIRE 5088 528 5040 528
WIRE 5200 528 5200 480
WIRE 5376 528 5376 480
WIRE 2176 544 2176 496
WIRE 2240 544 2176 544
WIRE 2368 544 2368 496
WIRE 2368 544 2320 544
WIRE 4880 544 4880 528
WIRE 2640 560 2640 496
WIRE 2880 560 2880 496
WIRE 5040 576 5024 576
WIRE 5200 576 5200 528
WIRE 5376 576 5376 528
WIRE 5824 576 5824 480
WIRE 1328 592 1328 496
WIRE 1328 592 1280 592
WIRE 1920 592 1920 448
WIRE 2320 592 2304 592
WIRE 2944 592 2944 496
WIRE 5248 592 5248 544
WIRE 1504 608 1504 448
WIRE 1616 608 1616 576
WIRE 1616 608 1504 608
WIRE 3728 608 3728 592
WIRE 3184 624 3152 624
WIRE 4224 624 4192 624
WIRE 4416 624 4224 624
WIRE 4944 624 4944 336
WIRE 4960 624 4944 624
WIRE 4976 624 4976 576
WIRE 4976 624 4960 624
WIRE 5040 624 5040 576
WIRE 5056 624 5040 624
WIRE 5072 624 5072 336
WIRE 5072 624 5056 624
WIRE 5200 624 5200 576
WIRE 5376 624 5376 576
WIRE 5440 624 5440 480
WIRE 5472 624 5440 624
WIRE 5584 624 5552 624
WIRE 5616 624 5584 624
WIRE 5728 624 5728 480
WIRE 5728 624 5696 624
WIRE 1280 640 1264 640
WIRE 1616 640 1616 608
WIRE 2032 640 2032 416
WIRE 2096 640 2096 608
WIRE 2096 640 2032 640
WIRE 2144 640 2144 544
WIRE 2144 640 2096 640
WIRE 2224 640 2224 352
WIRE 2240 640 2224 640
WIRE 2256 640 2256 592
WIRE 2256 640 2240 640
WIRE 2320 640 2320 592
WIRE 2336 640 2320 640
WIRE 2352 640 2352 352
WIRE 2352 640 2336 640
WIRE 5248 640 5248 592
WIRE 3184 656 3184 624
WIRE 4224 656 4224 624
WIRE 2096 672 2096 640
WIRE 1184 688 1184 400
WIRE 1216 688 1216 640
WIRE 1216 688 1184 688
WIRE 1280 688 1280 640
WIRE 1312 688 1312 400
WIRE 1312 688 1280 688
WIRE 2640 688 2640 624
WIRE 2720 688 2640 688
WIRE 2880 688 2880 624
WIRE 2880 688 2784 688
WIRE 4960 688 4960 624
WIRE 4976 688 4960 688
WIRE 5056 688 5056 624
WIRE 5056 688 5040 688
WIRE 5248 688 5248 640
WIRE 2240 704 2240 640
WIRE 2256 704 2240 704
WIRE 2336 704 2336 640
WIRE 2336 704 2320 704
WIRE 5584 704 5584 624
WIRE 5824 720 5824 656
WIRE 3520 736 3520 496
WIRE 1968 752 1968 528
WIRE 1984 752 1984 528
WIRE 2336 752 2336 704
WIRE 2640 752 2640 688
WIRE 2944 752 2944 656
WIRE 2944 752 2640 752
WIRE 3184 752 3184 736
WIRE 3184 752 3152 752
WIRE 3488 752 3184 752
WIRE 4960 752 4960 688
WIRE 2240 768 2240 704
WIRE 3184 768 3184 752
WIRE 3664 768 3552 768
WIRE 3696 768 3664 768
WIRE 4112 768 4080 768
WIRE 4224 768 4224 736
WIRE 4224 768 4112 768
WIRE 4272 768 4224 768
WIRE 5056 768 5056 688
WIRE 5088 768 5056 768
WIRE 5728 768 5728 624
WIRE 5728 768 5632 768
WIRE 2944 784 2944 752
WIRE 3488 784 3472 784
WIRE 1616 800 1616 720
WIRE 1760 800 1616 800
WIRE 1920 800 1920 672
WIRE 1920 800 1760 800
WIRE 3376 800 3344 800
WIRE 3472 800 3472 784
WIRE 3472 800 3456 800
WIRE 4112 800 4112 768
WIRE 4416 816 4416 624
WIRE 1760 832 1760 800
WIRE 4384 832 4352 832
WIRE 2336 848 2336 832
WIRE 3184 848 3184 832
WIRE 4496 848 4448 848
WIRE 5248 848 5248 688
WIRE 5248 848 4576 848
WIRE 5536 848 5536 768
WIRE 5536 848 5248 848
WIRE 3472 864 3472 800
WIRE 3536 864 3472 864
WIRE 3664 864 3664 768
WIRE 3664 864 3616 864
WIRE 4272 864 4272 768
WIRE 4384 864 4272 864
WIRE 2096 880 2096 752
WIRE 2880 880 2880 688
WIRE 2880 880 2096 880
WIRE 4112 896 4112 880
WIRE 3184 928 3184 912
WIRE 1760 944 1760 912
WIRE 4224 976 4224 768
WIRE 4112 1008 4112 976
WIRE 4192 1008 4112 1008
WIRE 3184 1024 3184 992
WIRE 3344 1024 3184 1024
WIRE 3520 1024 3520 800
WIRE 3520 1024 3344 1024
WIRE 4112 1040 4112 1008
WIRE 3344 1056 3344 1024
WIRE 4112 1152 4112 1120
WIRE 4224 1152 4224 1040
WIRE 4224 1152 4112 1152
WIRE 4320 1152 4224 1152
WIRE 4416 1152 4416 880
WIRE 4416 1152 4320 1152
WIRE 4320 1184 4320 1152
FLAG 5824 720 0
FLAG 3792 496 Vunreg
IOPIN 3792 496 Out
FLAG 1760 944 0
FLAG 2416 496 IN+
FLAG 5952 480 OUT
IOPIN 5952 480 Out
FLAG 3344 800 OUT
IOPIN 3344 800 In
FLAG 3344 1056 0
FLAG 4320 1184 0
FLAG 3696 768 CmpOut
IOPIN 3696 768 Out
FLAG 2512 752 CmpOut
IOPIN 2512 752 In
FLAG 2096 880 IN-
FLAG 2944 784 0
FLAG 3728 608 0
FLAG 2240 768 0
FLAG 3152 752 +15V
FLAG 2144 288 0
FLAG 2336 160 +34V
IOPIN 2336 160 Out
FLAG 4880 432 Vunreg
IOPIN 4880 432 In
FLAG 2592 -32 +17V
IOPIN 2592 -32 Out
FLAG 2480 208 0
FLAG 2592 96 +5V
IOPIN 2592 96 Out
FLAG 2256 288 0
FLAG 2144 96 0
FLAG 4384 432 0
FLAG 4592 112 +34V
IOPIN 4592 112 In
FLAG 4080 768 Vref
IOPIN 4080 768 Out
FLAG 4128 112 Vref
IOPIN 4128 112 In
FLAG 4192 624 +34V
IOPIN 4192 624 In
FLAG 4352 832 OUT
IOPIN 4352 832 In
FLAG 4432 272 OUT
IOPIN 4432 272 In
FLAG 4192 160 0
FLAG 4160 -16 +34V
IOPIN 4160 -16 In
FLAG 4880 544 0
FLAG 4960 752 0
FLAG 5088 768 CmpOut1
IOPIN 5088 768 In
FLAG 4608 256 CmpOut1
IOPIN 4608 256 Out
FLAG 2336 848 0
FLAG 3152 624 +34V
IOPIN 3152 624 In
SYMBOL polcap 2928 592 R0
WINDOW 3 24 56 Left 2
SYMATTR Value 45m
SYMATTR InstName C1-M
SYMATTR Description Capacitor
SYMATTR Type cap
SYMATTR SpiceLine V=35 Irms=3.355 Rser=0.004 Lser=14.3824n
SYMBOL schottky 2736 512 R270
WINDOW 0 32 32 VTop 2
WINDOW 3 0 32 VBottom 2
SYMATTR InstName D1
SYMATTR Value B560C
SYMATTR Description Diode
SYMATTR Type diode
SYMBOL npn 5200 544 R270
SYMATTR InstName Q5
SYMATTR Value TIP142
SYMATTR Prefix X
SYMBOL res 5488 496 R270
WINDOW 0 32 56 VTop 2
WINDOW 3 0 56 VBottom 2
SYMATTR InstName R16
SYMATTR Value 1
SYMBOL npn 5536 704 M90
SYMATTR InstName Q6
SYMATTR Value BC547B
SYMBOL schottky 2656 624 R180
WINDOW 0 24 64 Left 2
WINDOW 3 24 0 Left 2
SYMATTR InstName D4
SYMATTR Value B560C
SYMATTR Description Diode
SYMATTR Type diode
SYMBOL voltage 1616 480 R0
WINDOW 123 0 0 Left 0
WINDOW 39 24 124 Left 2
SYMATTR SpiceLine Rser=0.1
SYMATTR InstName V3
SYMATTR Value SINE(0 10 500 0 0 1)
SYMBOL ind2 1936 688 R180
WINDOW 0 36 80 Left 2
WINDOW 3 36 40 Left 2
SYMATTR InstName L1
SYMATTR Value 367.36
SYMATTR Type ind
SYMBOL ind2 2112 768 R180
WINDOW 0 36 80 Left 2
WINDOW 3 36 40 Left 2
SYMATTR InstName L2
SYMATTR Value 1
SYMATTR Type ind
SYMBOL ind2 2112 624 R180
WINDOW 0 36 80 Left 2
WINDOW 3 36 40 Left 2
SYMATTR InstName L3
SYMATTR Value 1
SYMATTR Type ind
SYMBOL res 1712 464 R270
WINDOW 0 32 56 VTop 2
WINDOW 3 0 56 VBottom 2
SYMATTR InstName R2
SYMATTR Value 0.001
SYMBOL sw 2224 544 R270
WINDOW 0 -16 15 Right 2
WINDOW 3 -11 113 Right 2
SYMATTR InstName RelS2
SYMATTR Value SwNC
SYMBOL zener 3168 992 M180
WINDOW 0 44 36 Left 2
WINDOW 3 24 0 Left 2
SYMATTR InstName D5
SYMATTR Value 1N750
SYMBOL res 1744 816 R0
SYMATTR InstName R5
SYMATTR Value 10000000Meg
SYMBOL res 3168 640 R0
SYMATTR InstName R3-M
SYMATTR Value 2k
SYMBOL sw 2224 448 M90
WINDOW 0 -85 16 Left 2
WINDOW 3 -81 112 Left 2
SYMATTR InstName RelS1
SYMATTR Value SwNO
SYMBOL OpAmp\\LM358_TI 4416 848 R0
SYMATTR InstName U1
SYMATTR Value LM6171A/NS
SYMBOL schottky 2720 704 R270
WINDOW 0 32 32 VTop 2
WINDOW 3 0 32 VBottom 2
SYMATTR InstName D3
SYMATTR Value B560C
SYMATTR Description Diode
SYMATTR Type diode
SYMBOL schottky 2896 624 R180
WINDOW 0 24 64 Left 2
WINDOW 3 24 0 Left 2
SYMATTR InstName D2
SYMATTR Value B560C
SYMATTR Description Diode
SYMATTR Type diode
SYMBOL diode 2256 720 R270
WINDOW 0 32 32 VTop 2
WINDOW 3 0 32 VBottom 2
SYMATTR InstName D7-M
SYMATTR Value 1N4148
SYMBOL res 3728 496 R0
SYMATTR InstName R50
SYMATTR Value 25
SYMBOL res 2528 512 R270
WINDOW 0 32 56 VTop 2
WINDOW 3 0 56 VBottom 2
SYMATTR InstName R1
SYMATTR Value 0.001
SYMBOL schottky 2112 416 R180
WINDOW 0 -53 64 Left 2
WINDOW 3 -66 0 Left 2
SYMATTR InstName D8-M
SYMATTR Value B560C
SYMATTR Description Diode
SYMATTR Type diode
SYMBOL zener 3168 912 M180
WINDOW 0 42 35 Left 2
WINDOW 3 24 0 Left 2
SYMATTR InstName D6
SYMATTR Value 1N750
SYMBOL zener 3168 832 M180
WINDOW 0 42 35 Left 2
WINDOW 3 24 0 Left 2
SYMATTR InstName D12-M
SYMATTR Value STZ5_6N
SYMBOL zener 2464 176 M180
WINDOW 0 42 35 Left 2
WINDOW 3 24 0 Left 2
SYMATTR InstName 1N5338B
SYMATTR Value UMZ5_1N
SYMBOL schottky 2048 416 R180
WINDOW 0 24 64 Left 2
WINDOW 3 24 0 Left 2
SYMATTR InstName D13
SYMATTR Value B560C
SYMATTR Description Diode
SYMATTR Type diode
SYMBOL res 2464 -32 R0
SYMATTR InstName R_Fan-M
SYMATTR Value 71
SYMBOL voltage 1616 624 R0
WINDOW 123 24 124 Left 2
WINDOW 39 24 152 Left 2
SYMATTR Value2 AC 230 0
SYMATTR SpiceLine Rser=0.1
SYMATTR InstName V1
SYMATTR Value SINE(0 325.57 50)
SYMBOL res 4208 640 R0
SYMATTR InstName R19
SYMATTR Value 2.2k
SYMBOL res 4480 864 R270
WINDOW 0 32 56 VTop 2
WINDOW 3 0 56 VBottom 2
SYMATTR InstName R2_B
SYMATTR Value 0.001
SYMBOL res 5392 464 R90
WINDOW 0 0 56 VBottom 2
WINDOW 3 32 56 VTop 2
SYMATTR InstName R12
SYMATTR Value 100m
SYMBOL res 5392 512 R90
WINDOW 0 0 56 VBottom 2
WINDOW 3 32 56 VTop 2
SYMATTR InstName R13
SYMATTR Value 100m
SYMBOL res 5392 560 R90
WINDOW 0 0 56 VBottom 2
WINDOW 3 32 56 VTop 2
SYMATTR InstName R14
SYMATTR Value 100m
SYMBOL res 5392 608 R90
WINDOW 0 0 56 VBottom 2
WINDOW 3 32 56 VTop 2
SYMATTR InstName R15
SYMATTR Value 100m
SYMBOL cap 2128 0 R0
SYMATTR InstName C4-M
SYMATTR Value 1m
SYMATTR SpiceLine V=35
SYMBOL npn 5200 592 R270
SYMATTR InstName Q2
SYMATTR Value TIP142
SYMATTR Prefix X
SYMBOL npn 5200 640 R270
SYMATTR InstName Q3
SYMATTR Value TIP142
SYMATTR Prefix X
SYMBOL npn 5200 688 R270
SYMATTR InstName Q4
SYMATTR Value TIP142
SYMATTR Prefix X
SYMBOL cap 2128 192 R0
SYMATTR InstName C3-M
SYMATTR Value 1m
SYMATTR SpiceLine V=35
SYMBOL cap 2240 192 R0
SYMATTR InstName C2-M
SYMATTR Value 1m
SYMATTR SpiceLine V=35
SYMBOL OpAmp\\LM358_TI 4496 256 R0
SYMATTR InstName U3
SYMATTR Value LM6171A/NS
SYMBOL res 4272 272 R0
SYMATTR InstName R_Pot2_2
SYMATTR Value 0
SYMBOL res 4272 112 R0
SYMATTR InstName R_Pot2_1
SYMATTR Value 10k
SYMBOL res 5568 608 R90
WINDOW 0 0 56 VBottom 2
WINDOW 3 32 56 VTop 2
SYMATTR InstName R_Pot1
SYMATTR Value 1k
SYMBOL res 4096 880 R0
SYMATTR InstName R_Pot
SYMATTR Value 22k
SYMBOL res 4096 1024 R0
SYMATTR InstName R11
SYMATTR Value 820
SYMBOL REF\\tlv431 4208 976 R0
SYMATTR InstName U5
SYMBOL OpAmp\\LM358_TI 4192 96 R0
SYMATTR InstName U4
SYMATTR Value LM6171A/NS
SYMBOL res 4096 784 R0
SYMATTR InstName R10
SYMATTR Value 0
SYMBOL res 4544 128 R0
SYMATTR InstName R8
SYMATTR Value 20k
SYMBOL sw 4944 528 R270
WINDOW 0 -16 15 Right 2
WINDOW 3 -11 113 Right 2
SYMATTR InstName RelS3
SYMATTR Value SwNC
SYMBOL sw 4944 432 M90
WINDOW 0 -85 16 Left 2
WINDOW 3 -81 112 Left 2
SYMATTR InstName RelS4
SYMATTR Value SwNO
SYMBOL diode 4976 704 R270
WINDOW 0 32 32 VTop 2
WINDOW 3 0 32 VBottom 2
SYMATTR InstName D7
SYMATTR Value 1N4148
SYMBOL voltage 2320 736 R0
WINDOW 123 0 0 Left 0
WINDOW 39 0 0 Left 0
SYMATTR InstName V2
SYMATTR Value PULSE(12.5 0 0 0 0 0.1 0.2)
SYMBOL sw 1184 592 R270
WINDOW 0 -16 15 Right 2
WINDOW 3 -11 113 Right 2
SYMATTR InstName RelS5
SYMATTR Value SwNC
SYMBOL sw 1184 496 M90
WINDOW 0 -85 16 Left 2
WINDOW 3 -81 112 Left 2
SYMATTR InstName RelS6
SYMATTR Value SwNO
SYMBOL res 3472 784 R90
WINDOW 0 0 56 VBottom 2
WINDOW 3 32 56 VTop 2
SYMATTR InstName R6-M
SYMATTR Value 1k
SYMBOL res 3632 848 R90
WINDOW 0 0 56 VBottom 2
WINDOW 3 32 56 VTop 2
SYMATTR InstName R7-M
SYMATTR Value 40k
SYMBOL res 3056 512 R270
WINDOW 0 32 56 VTop 2
WINDOW 3 0 56 VBottom 2
SYMATTR InstName R51
SYMATTR Value 0.001
SYMBOL res 5712 608 R90
WINDOW 0 0 56 VBottom 2
WINDOW 3 32 56 VTop 2
SYMATTR InstName R17
SYMATTR Value 1k
SYMBOL OpAmp\\LM358_NS 3520 768 R0
SYMATTR InstName U2
SYMBOL res 5808 560 R0
SYMATTR InstName R3
SYMATTR Value 5
TEXT 2640 920 Left 2 !.tran 0.25
TEXT 1872 848 Left 2 !K1 L1 L2 L3 1
TEXT 1728 1048 Left 2 !; For the relays\n.MODEL SwNO SW(Ron=10m Roff=1000Meg Vt=12 Vh=.5 Lser=10n Vser=.6)\n.MODEL SwNC SW(Roff=10m Ron=1000Meg Vt=0.5 Vh=.5 Lser=10n Vser=.6)
TEXT 1128 1040 Left 2 !**************************************\n*      Model Generated by MODPEX     *\n*Copyright(c) Symmetry Design Systems*\n*         All Rights Reserved        *\n*    UNPUBLISHED LICENSED SOFTWARE   *\n*   Contains Proprietary Information *\n*      Which is The Property of      *\n*     SYMMETRY OR ITS LICENSORS      *\n*    Modeling services provided by   *\n* Interface Technologies www.i-t.com *\n**************************************\n.SUBCKT TIP142 1 2 3\n* Model generated on Feb  8, 2004\n* Model format: PSpice\n* Darlington macro model\n* External node designations\n* Node 1 -> Collect\n* Node 2 -> Base\n* Node 3 -> Emitter\nQ1 1 2 4 qmodel\nQ2 1 4 3 q1model 19.6725\nD1 3 1 dmodel\nR1 2 4 8000\nR2 4 3 40\n* Default values used in dmodel\n*   EG=1.11 TT=0 BV=infinite\n.MODEL dmodel d\n+IS=1e-12 RS=10 N=1 XTI=3\n+CJO=0 VJ=0.75 M=0.33 FC=0.5\n.MODEL qmodel npn\n+IS=2.92836e-16 BF=233.76 NF=1.2 VAF=1000\n+IKF=0.222129 ISE=4.61322e-11 NE=2.48158 BR=1.89854\n+NR=0.75 VAR=168.458 IKR=0.108495 ISC=9.99999e-14\n+NC=2.00001 RB=7.90758 IRB=0.2 RBM=7.90758\n+RE=0.275456 RC=1.42279 XTB=0.232595 XTI=3.02293 EG=1.206\n+CJE=1e-11 VJE=0.75 MJE=0.33 TF=1e-09\n+XTF=1 VTF=10 ITF=0.01 CJC=1.67157e-09\n+VJC=0.95 MJC=0.23 XCJC=0.9 FC=0.5\n+TR=1e-07 PTF=0 KF=0 AF=1\n.MODEL q1model npn\n+IS=2.92836e-16 BF=233.76 NF=1.2 VAF=1000\n+IKF=0.222129 ISE=4.61322e-11 NE=2.48158 BR=1.89854\n+NR=0.75 VAR=168.458 IKR=0.108495 ISC=9.99999e-14\n+NC=2.00001 RB=7.90758 IRB=0.2 RBM=7.90758\n+RE=0.275456 RC=1.42279 XTB=0.232595 XTI=3.02293 EG=1.206\n+CJE=1e-11 VJE=0.75 MJE=0.33 TF=1e-09\n+XTF=1 VTF=10 ITF=0.01 CJC=0\n+VJC=0.95 MJC=0.23 XCJC=0.9 FC=0.5\n+TR=1e-07 PTF=0 KF=0 AF=1\n.ENDS
TEXT 2256 632 Left 2 ;Relay
TEXT 2440 472 Left 2 ;NTCR1-M
TEXT 2344 688 Left 0 ;Diode here to protect from the coil's back "infinite" EMF
TEXT 2216 528 Left 2 ;NC
TEXT 2216 464 Left 2 ;NO
TEXT 4080 -80 Left 1 ;External short-circuit protection\nSo no need for Foldback protection anymore - protection for overcurrent only
TEXT 5848 672 Left 2 ;7.5 Ohm minimum at 30 V (4 A)\nExcept voltage gets lowered. Test manually at 4 A.
TEXT 2496 64 Left 0 ;17 - 5 = 12 V --> Fan voltage (hence R_fan)
TEXT 2328 -200 Left 6 ;Unregulated module
TEXT 2232 120 Left 2 ;Relay
TEXT 2264 312 Left 2 ;Relay
TEXT 104 -88 Left 2 !*//////////////////////////////////////////////////////////////////////\n* (C) National Semiconductor, Inc.\n* Models developed and under copyright by:\n* National Semiconductor, Inc.  \n*/////////////////////////////////////////////////////////////////////\n* Legal Notice: This material is intended for free software support.\n* The file may be copied, and distributed; however, reselling the \n*  material is illegal\n*////////////////////////////////////////////////////////////////////\n* For ordering or technical information on these models, contact:\n* National Semiconductor's Customer Response Center\n*                 7:00 A.M.--7:00 P.M.  U.S. Central Time\n*                                (800) 272-9959\n* For Applications support, contact the Internet address:\n*  Appshelp@galaxy.nsc.com\n*/////////////////////////////////////////\n*LM6171A Operational Amplifier Macro-Model\n*/////////////////////////////////////////\n*\n*Connections       non-inverting input\n*                  | inverting input\n*                  | |  positive power supply\n*                  | | |  negative power supply\n*                  | | | |  output\n*                  | | | | |\n.SUBCKT LM6171A/NS 3 2 4 5 6\n* CAUTION:  SET .OPTIONS GMIN=1E-16 TO CORRECTLY MODEL INPUT BIAS CURRENT.\n* Features:\n* +/-15V Operation\n* Unity Gain Stable\n* Offset voltage (max) =             3mV\n* Gain-bandwidth product =           100 MHz \n* Supply current =                   2.5mA\n* Slew rate =                        3600V/uS\n* Open Loop gain =                   90dB\n********************************************************************\nEOX 120 10 31 32 2.0\nRCX 120 121 1K\nRDX 121 10 1K\nRBX 120 122 1K\nGOS 10 57 122 121 1.0\nRVOS 31 32 1K\nRINB 2 18 1000\nRINA 3 19 1000\nDIN1 5 18 DMOD2\nDIN2 18 4 DMOD2\nDIN3 5 19 DMOD2\nDIN4 19 4 DMOD2\nEXX 10 5 17 5 1.0\nEEE 10 50 17 5 1.0\nECC 40 10 4 17 1.0\nRAA 4 17 100MEG\nRBB 17 5 100MEG\nISET 10 24 1e-3\nDA1 24 23 DMOD1\nRBAL 23 22 1000\nESUPP 22 21 4 5 1.0\nVOFF 21 10 -1.25\nDA2 24 25 DMOD1\nVSENS1 25 26 DC 0\nRSET 26 10 1K\nCSET 26 10 1e-10\nFSET 10 31 VSENS1 1.0\nR001 34 10 1K\nFTEMP 10 27 VSENS1 1.0\nDTA 27 10 DMOD2\nDTB 28 29 DMOD2\nVTEMP 29 10 DC 0\nECMR 38 10 11 10 1.0\nVCMX 38 39 DC 0\nRCM2 41 10 1MEG\nEPSR 42 10 4 10 1.0\nCDC1 43 42 10U\nVPSX 43 44 DC 0\nRPSR2 45 10 1MEG\nFCXX 57 10 VCXX 100\nDCX1 98 97 DMOD1\nDCX2 95 94 DMOD1\nRCX1 99 98 100\nRCX2 94 99 100\nVCXX 99 96 DC 0\nECMX 96 10 11 10 1.0\nDLIM1 52 57 DMOD1\nDLIM2 57 51 DMOD1\nELIMP 51 10 26 10 99.3\nGDM 10 57 3 2 1\nC1 58 59 1e-10\nDCLMP2 59 40 DMOD1\nDCLMP1 50 59 DMOD1\nRO2 59 10 1K\nGO3 10 71 59 10 1\nRO3 71 10 1\nDDN1 73 74 DMOD1\nDDN2 73 710 DMOD1\nDDP1 75 72 DMOD1\nDDP2 71 720 DMOD1\nRDN2 710 71 100\nRDP 720 72 100\nVOOP 40 76 DC 0\nVOON 77 50 DC 0\nQNO 76 73 78 NPN1\nQNP 77 72 79 PNP1\nRNO 78 81 1\nRPO 79 81 1\nVOX 86 6 DC 0\nRNT 76 81 100MEG\nRPT 81 77 1MEG\nFX 10 93 VOX 1.0\nDFX1 93 91 DMOD1\nVFX1 91 10 DC 0\nDFX2 92 93 DMOD1\nVFX2 10 92 DC 0\nFPX 4 10 VFX1 1.0\nFNX 10 5 VFX2 1.0\nRAX 122 10 MRAX 1.006000e+03\n.MODEL MRAX RES (TC1=-1.1e-05)\nFIN1 18 5 VTEMP 0.985\nFIN2 19 5 VTEMP 1.015\nCIN1 2 10 1e-12\nCIN2 3 10 1e-12\nRD1 18 11 2.45e+06\nRD2 19 11 2.45e+06\nRCM 11 10 3.8775e+07\nFCMR 10 57 VCMX 3.16228\nFPSR 10 57 VPSX 63.2456\nRSLOPE 4 5 33333.3\nGPWR 4 5 26 10 0.0016\nETEMP 27 28 32 33 0.178427\nRIB 32 33 MRIB 1K\n.MODEL MRIB RES (TC1=0.00389579)\nRISC 33 34 MRISC 1K\n.MODEL MRISC RES (TC1=-0.002)\nRCM1 39 41 10\nCCM 41 10 2.65258e-11\nRPSR1 44 45 100\nCPSR 45 10 1.59155e-10\nELIMN 10 52 26 10 91.8926\nRDM 57 10 23.5073\nC2 57 10 4.78743e-11\nECMP 40 97 26 10 2\nECMN 95 50 26 10 2\nG2 58 10 57 10 0.00378\nR2 58 10 11.254\nGO2 59 10 58 10 35\nEPOS 40 74 26 10 1.4\nENEG 75 50 26 10 1.5\nGSOURCE 74 73 33 34 0.00135\nGSINK 72 75 33 34 0.00135\nROO 81 86 13\n.MODEL DMOD1 D\n*-- DMOD1 DEFAULT PARAMETERS\n*IS=1e-14 RS=0 N=1 TT=0 CJO=0\n*VJ=1 M=0.5 EG=1.11 XTI=3 FC=0.5\n*KF=0 AF=1 BV=inf IBV=1e-3 TNOM=27\n.MODEL DMOD2 D  (IS=1e-17)\n*-- DMOD2 DEFAULT PARAMETERS\n*RS=0 N=1 TT=0 CJO=0\n*VJ=1 M=0.5 EG=1.11 XTI=3 FC=0.5\n*KF=0 AF=1 BV=inf IBV=1e-3 TNOM=27\n.MODEL NPN1 NPN (BF=100 IS=1e-15)\n*-- NPN1 DEFAULT PARAMETERS\n*NF=1 VAF=inf IKF=inf ISE=0 NE=1.5\n*BR=1 NR=1 VAR=inf IKR=inf ISC=0\n*NC=2 RB=0 IRB=inf RBM=0 RE=0 RC=0\n*CJE=0 VJE=0.75 MJE=0.33 TF=0 XTF=0\n*VTF=inf ITF=0 PTF=0 CJC=0 VJC=0.75\n*MJC=0.33 XCJC=1 TR=0 CJS=0 VJS=0.75\n*MJS=0 XTB=0 EG=1.11 XTI=3 KF=0 AF=1\n*FC=0.5 TNOM=27\n.MODEL PNP1 PNP (BF=100 IS=1e-15)\n*-- PNP1 DEFAULT PARAMETERS\n*NF=1 VAF=inf IKF=inf ISE=0 NE=1.5\n*BR=1 NR=1 VAR=inf IKR=inf ISC=0\n*NC=2 RB=0 IRB=inf RBM=0 RE=0 RC=0\n*CJE=0 VJE=0.75 MJE=0.33 TF=0 XTF=0\n*VTF=inf ITF=0 PTF=0 CJC=0 VJC=0.75\n*MJC=0.33 XCJC=1 TR=0 CJS=0 VJS=0.75\n*MJS=0 XTB=0 EG=1.11 XTI=3 KF=0 AF=1\n*FC=0.5 TNOM=27\n.ENDS\n*$
TEXT 4728 -192 Left 6 ;Regulator module
TEXT 4936 512 Left 2 ;NC
TEXT 4936 448 Left 2 ;NO
TEXT 4984 296 Left 2 ;Relay
TEXT 2384 784 Left 1 ;Must be a voltage source for some reason,\nnot the CmpOut signal
TEXT 1664 536 Left 1 ;For noise
TEXT 1176 576 Left 2 ;NC
TEXT 1176 512 Left 2 ;NO
TEXT 1224 360 Left 2 ;Relay
TEXT 2472 512 Left 2 ;8R
TEXT 3256 600 Left 1 ;Winding switcher circuit
TEXT 3408 696 Left 1 ;Connected to +34V physically
LINE Normal 2208 336 2384 336 2
LINE Normal 2208 656 2208 336 2
LINE Normal 2352 656 2208 656 2
LINE Normal 2384 656 2352 656 2
LINE Normal 2384 336 2384 656 2
LINE Normal 4928 320 5104 320 2
LINE Normal 4928 640 4928 320 2
LINE Normal 5072 640 4928 640 2
LINE Normal 5104 640 5072 640 2
LINE Normal 5104 320 5104 640 2
LINE Normal 1168 384 1344 384 2
LINE Normal 1168 704 1168 384 2
LINE Normal 1312 704 1168 704 2
LINE Normal 1344 704 1312 704 2
LINE Normal 1344 384 1344 704 2
