Version 4
SHEET 1 14432 10312
WIRE 1904 -16 1824 -16
WIRE 2016 -16 1904 -16
WIRE 2272 -16 2016 -16
WIRE 2384 -16 2272 -16
WIRE 2272 0 2272 -16
WIRE 1904 16 1904 -16
WIRE 2016 16 2016 -16
WIRE 3632 64 3584 64
WIRE 3744 64 3696 64
WIRE 4176 64 4064 64
WIRE 4240 64 4176 64
WIRE 4400 64 4320 64
WIRE 4464 64 4400 64
WIRE 4704 64 4624 64
WIRE 4736 64 4704 64
WIRE 4880 64 4816 64
WIRE 5008 64 4880 64
WIRE 4176 96 4176 64
WIRE 1904 112 1904 80
WIRE 2016 112 2016 80
WIRE 2272 112 2272 80
WIRE 2384 112 2272 112
WIRE 2272 128 2272 112
WIRE 1936 176 1888 176
WIRE 2048 176 1936 176
WIRE 2128 176 2048 176
WIRE 3584 176 3584 64
WIRE 3632 176 3584 176
WIRE 3744 176 3744 64
WIRE 3744 176 3712 176
WIRE 4704 176 4704 64
WIRE 1936 208 1936 176
WIRE 2048 208 2048 176
WIRE 4176 208 4176 176
WIRE 4320 208 4176 208
WIRE 2272 224 2272 192
WIRE 4176 224 4176 208
WIRE 3648 240 3648 224
WIRE 3696 240 3696 224
WIRE 4656 240 4624 240
WIRE 4880 240 4880 64
WIRE 4880 240 4752 240
WIRE 4400 272 4400 64
WIRE 4400 272 4368 272
WIRE 1936 304 1936 272
WIRE 2048 304 2048 272
WIRE 4176 336 4176 304
WIRE 4272 336 4272 272
WIRE 1824 368 1824 -16
WIRE 1888 368 1888 176
WIRE 2048 368 2016 368
WIRE 2144 368 2112 368
WIRE 2048 416 2048 368
WIRE 2112 416 2112 368
WIRE 2112 416 2096 416
WIRE 1472 464 1408 464
WIRE 1584 464 1552 464
WIRE 1712 464 1664 464
WIRE 2032 464 1952 464
WIRE 2160 464 2112 464
WIRE 1408 512 1408 464
WIRE 1888 512 1888 432
WIRE 1952 512 1888 512
WIRE 2160 512 2160 464
WIRE 2208 512 2160 512
WIRE 2272 512 2208 512
WIRE 2432 512 2352 512
WIRE 2528 512 2432 512
WIRE 2672 512 2592 512
WIRE 2736 512 2672 512
WIRE 2960 512 2736 512
WIRE 3296 512 2960 512
WIRE 3456 512 3296 512
WIRE 3520 512 3456 512
WIRE 3584 512 3520 512
WIRE 3520 528 3520 512
WIRE 1888 544 1888 512
WIRE 1952 560 1952 512
WIRE 2032 560 1952 560
WIRE 2160 560 2160 512
WIRE 2160 560 2112 560
WIRE 2960 560 2960 512
WIRE 2432 576 2432 512
WIRE 2672 576 2672 512
WIRE 1712 608 1712 464
WIRE 2112 608 2096 608
WIRE 2736 608 2736 512
WIRE 4848 608 4672 608
WIRE 1296 624 1296 464
WIRE 1408 624 1408 592
WIRE 1408 624 1296 624
WIRE 3520 624 3520 608
WIRE 3456 640 3456 512
WIRE 4352 640 4048 640
WIRE 4448 640 4352 640
WIRE 4672 640 4672 608
WIRE 4672 640 4624 640
WIRE 1408 656 1408 624
WIRE 1824 656 1824 432
WIRE 1888 656 1888 624
WIRE 1888 656 1824 656
WIRE 1952 656 1952 560
WIRE 2016 656 2016 368
WIRE 2032 656 2016 656
WIRE 2048 656 2048 608
WIRE 2048 656 2032 656
WIRE 2112 656 2112 608
WIRE 2128 656 2112 656
WIRE 2144 656 2144 368
WIRE 2144 656 2128 656
WIRE 3040 656 3024 656
WIRE 3136 656 3120 656
WIRE 3296 656 3296 512
WIRE 2912 672 2848 672
WIRE 2960 672 2960 640
WIRE 2960 672 2912 672
WIRE 3024 672 3024 656
WIRE 3024 672 2960 672
WIRE 3136 672 3136 656
WIRE 3264 672 3136 672
WIRE 1888 688 1888 656
WIRE 2960 688 2960 672
WIRE 3360 688 3328 688
WIRE 3392 688 3360 688
WIRE 4448 688 4448 640
WIRE 4624 688 4624 640
WIRE 4848 688 4848 608
WIRE 4896 688 4848 688
WIRE 5024 688 4976 688
WIRE 5248 688 5024 688
WIRE 5312 688 5248 688
WIRE 5472 688 5392 688
WIRE 5552 688 5472 688
WIRE 5600 688 5552 688
WIRE 2432 704 2432 640
WIRE 2512 704 2432 704
WIRE 2672 704 2672 640
WIRE 2672 704 2576 704
WIRE 3264 704 3232 704
WIRE 2032 720 2032 656
WIRE 2048 720 2032 720
WIRE 2128 720 2128 656
WIRE 2128 720 2112 720
WIRE 3120 720 3104 720
WIRE 3232 720 3232 704
WIRE 3232 720 3200 720
WIRE 2128 736 2128 720
WIRE 4448 736 4448 688
WIRE 4624 736 4624 688
WIRE 4496 752 4496 704
WIRE 5248 752 5248 688
WIRE 1760 768 1760 544
WIRE 1776 768 1776 544
WIRE 2432 768 2432 704
WIRE 2736 768 2736 672
WIRE 2736 768 2432 768
WIRE 2960 768 2960 752
WIRE 3360 768 3360 688
WIRE 5552 768 5552 688
WIRE 2032 784 2032 720
WIRE 3456 784 3456 736
WIRE 3472 784 3456 784
WIRE 3760 784 3744 784
WIRE 3952 784 3920 784
WIRE 4448 784 4448 736
WIRE 4624 784 4624 736
WIRE 2736 800 2736 768
WIRE 4496 800 4496 752
WIRE 1408 816 1408 736
WIRE 1552 816 1408 816
WIRE 1712 816 1712 688
WIRE 1712 816 1552 816
WIRE 3760 832 3760 784
WIRE 4448 832 4448 784
WIRE 4624 832 4624 784
WIRE 1552 848 1552 816
WIRE 2960 848 2960 832
WIRE 4496 848 4496 800
WIRE 5024 848 5024 688
WIRE 5472 848 5472 688
WIRE 4448 880 4448 832
WIRE 4624 880 4624 832
WIRE 1888 896 1888 768
WIRE 2672 896 2672 704
WIRE 2672 896 1888 896
WIRE 4496 896 4496 848
WIRE 5248 896 5248 832
WIRE 5248 896 5200 896
WIRE 5200 912 5200 896
WIRE 2848 944 2848 672
WIRE 2848 944 2752 944
WIRE 2944 944 2848 944
WIRE 2960 944 2960 912
WIRE 3120 944 2960 944
WIRE 3296 944 3296 720
WIRE 3296 944 3120 944
WIRE 3360 944 3360 848
WIRE 3360 944 3296 944
WIRE 4352 944 4352 640
WIRE 4496 944 4496 896
WIRE 4496 944 4448 944
WIRE 1552 960 1552 928
WIRE 3712 960 3696 960
WIRE 3760 960 3760 912
WIRE 3760 960 3712 960
WIRE 3856 960 3760 960
WIRE 5024 960 5024 928
WIRE 5024 960 4864 960
WIRE 5248 960 5248 896
WIRE 2752 976 2752 944
WIRE 2848 976 2848 944
WIRE 2944 976 2944 944
WIRE 3120 976 3120 944
WIRE 3952 976 3952 784
WIRE 3920 992 3888 992
WIRE 5024 992 5024 960
WIRE 3760 1008 3760 960
WIRE 4032 1008 3984 1008
WIRE 4400 1008 4112 1008
WIRE 3856 1024 3856 960
WIRE 3920 1024 3856 1024
WIRE 3712 1040 3712 960
WIRE 3728 1040 3712 1040
WIRE 2752 1072 2752 1040
WIRE 2848 1072 2848 1040
WIRE 2944 1072 2944 1040
WIRE 3888 1072 3888 992
WIRE 4864 1072 4864 960
WIRE 4864 1072 3888 1072
WIRE 3760 1104 3760 1072
WIRE 3856 1104 3760 1104
WIRE 3952 1104 3952 1040
WIRE 3952 1104 3856 1104
WIRE 5024 1104 5024 1072
WIRE 5152 1104 5024 1104
WIRE 5248 1104 5248 1040
WIRE 5248 1104 5152 1104
WIRE 5472 1104 5472 928
WIRE 5472 1104 5248 1104
WIRE 3856 1136 3856 1104
WIRE 5152 1136 5152 1104
WIRE 5264 1392 5264 1360
WIRE 5264 1392 5056 1392
WIRE 5120 1456 5088 1456
WIRE 5216 1456 5184 1456
WIRE 5120 1504 5120 1456
WIRE 5184 1504 5184 1456
WIRE 5184 1504 5168 1504
WIRE 5056 1552 5056 1392
WIRE 5104 1552 5056 1552
WIRE 5232 1552 5184 1552
WIRE 5232 1600 5232 1552
WIRE 5344 1600 5344 1360
WIRE 5344 1600 5232 1600
WIRE 5376 1600 5344 1600
WIRE 5104 1648 5040 1648
WIRE 5232 1648 5232 1600
WIRE 5232 1648 5184 1648
WIRE 5040 1664 5040 1648
WIRE 5184 1696 5168 1696
WIRE 5088 1744 5088 1456
WIRE 5104 1744 5088 1744
WIRE 5120 1744 5120 1696
WIRE 5120 1744 5104 1744
WIRE 5184 1744 5184 1696
WIRE 5200 1744 5184 1744
WIRE 5216 1744 5216 1456
WIRE 5216 1744 5200 1744
WIRE 5104 1808 5104 1744
WIRE 5120 1808 5104 1808
WIRE 5200 1808 5200 1744
WIRE 5200 1808 5184 1808
WIRE 5104 1856 5104 1808
WIRE 5200 1856 5200 1808
WIRE 5264 1856 5264 1840
WIRE 5264 1856 5200 1856
WIRE 5344 1856 5344 1840
WIRE 5376 1856 5376 1840
WIRE 5376 1856 5344 1856
FLAG 4176 336 0
FLAG 5152 1136 0
FLAG 4640 736 V637
IOPIN 4640 736 Out
FLAG 4848 736 V638
IOPIN 4848 736 In
FLAG 4064 96 V637
IOPIN 4064 96 In
FLAG 4480 128 V638
IOPIN 4480 128 Out
FLAG 4672 944 V639
IOPIN 4672 944 Out
FLAG 4272 384 V639
IOPIN 4272 384 In
FLAG 3584 512 Vunreg
IOPIN 3584 512 Out
FLAG 1552 960 0
FLAG 2208 512 IN+
FLAG 5600 688 OUT
IOPIN 5600 688 Out
FLAG 3104 720 OUT
IOPIN 3104 720 In
FLAG 3120 976 0
FLAG 3856 1136 0
FLAG 3472 784 CmpOut
IOPIN 3472 784 Out
FLAG 2128 816 CmpOut
IOPIN 2128 816 In
FLAG 1888 896 IN-
FLAG 2736 800 0
FLAG 3520 624 0
FLAG 2032 784 0
FLAG 4624 64 0
FLAG 4624 240 0
FLAG 5008 64 0
FLAG 4064 64 0
FLAG 4464 64 0
FLAG 4272 336 0
FLAG 2912 672 +16V
FLAG 1936 304 0
FLAG 2128 176 +34V-F
IOPIN 2128 176 Out
FLAG 3744 784 +5V
IOPIN 3744 784 In
FLAG 3648 240 ShortDetec
IOPIN 3648 240 In
FLAG 5200 912 ShortDetec
IOPIN 5200 912 In
FLAG 3696 240 0
FLAG 4048 640 Vunreg
IOPIN 4048 640 In
FLAG 5552 784 0
FLAG 5040 1664 0
FLAG 5104 1856 0
FLAG 5376 1840 ShortDetec
IOPIN 5376 1840 In
FLAG 2384 -16 +17V
IOPIN 2384 -16 Out
FLAG 2752 1072 0
FLAG 2272 224 0
FLAG 2384 112 +5V
IOPIN 2384 112 Out
FLAG 2048 304 0
FLAG 3920 784 +34V
IOPIN 3920 784 In
FLAG 3696 960 +1.24V
FLAG 2848 1072 0
FLAG 2944 1072 0
FLAG 1904 112 0
FLAG 2016 112 0
SYMBOL polcap 2720 608 R0
WINDOW 3 24 56 Left 2
SYMATTR Value 40m
SYMATTR InstName C1-M
SYMATTR Description Capacitor
SYMATTR Type cap
SYMATTR SpiceLine V=50 Irms=3.355 Rser=0.004 Lser=14.3824n mfg="Würth Elektronik" pn="860010683032 WCAP-ATG8 22x41" type="Al electrolytic"
SYMBOL schottky 2528 528 R270
WINDOW 0 32 32 VTop 2
WINDOW 3 0 32 VBottom 2
SYMATTR InstName D1
SYMATTR Value RBR5L60A
SYMATTR Description Diode
SYMATTR Type diode
SYMBOL npn 4448 704 R270
SYMATTR InstName Q1_B
SYMATTR Value TIP41C
SYMBOL res 4864 784 R0
SYMATTR InstName R3_B
SYMATTR Value 3.9k
SYMBOL res 4880 992 R0
SYMATTR InstName R4_B
SYMATTR Value 860
SYMBOL res 4224 80 R270
WINDOW 0 32 56 VTop 2
WINDOW 3 0 56 VBottom 2
SYMATTR InstName R6_B
SYMATTR Value 0.90
SYMBOL res 4160 208 R0
SYMATTR InstName R8_B
SYMATTR Value 10k
SYMBOL res 4160 80 R0
SYMATTR InstName R7_B
SYMATTR Value 1k
SYMBOL npn 4272 208 M90
SYMATTR InstName Q2_B
SYMATTR Value 2N2222
SYMBOL res 5008 832 R0
SYMATTR InstName R1_Pot
SYMATTR Value 20k
SYMBOL res 4720 80 R270
WINDOW 0 32 56 VTop 2
WINDOW 3 0 56 VBottom 2
SYMATTR InstName R5_B
SYMATTR Value 0.36
SYMBOL npn 4656 176 M90
SYMATTR InstName Q3_B
SYMATTR Value 2N2222
SYMBOL res 5456 832 R0
SYMATTR InstName R22
SYMATTR Value 7
SYMBOL schottky 2448 640 R180
WINDOW 0 24 64 Left 2
WINDOW 3 24 0 Left 2
SYMATTR InstName D4
SYMATTR Value RBR5L60A
SYMATTR Description Diode
SYMATTR Type diode
SYMBOL voltage 1408 496 R0
WINDOW 123 0 0 Left 0
WINDOW 39 24 124 Left 2
SYMATTR SpiceLine Rser=0.1
SYMATTR InstName V3
SYMATTR Value SINE(0 10 5000)
SYMBOL ind2 1728 704 R180
WINDOW 0 36 80 Left 2
WINDOW 3 36 40 Left 2
SYMATTR InstName L1
SYMATTR Value 367.36
SYMATTR Type ind
SYMBOL ind2 1904 784 R180
WINDOW 0 36 80 Left 2
WINDOW 3 36 40 Left 2
SYMATTR InstName L2
SYMATTR Value 1
SYMATTR Type ind
SYMBOL ind2 1904 640 R180
WINDOW 0 36 80 Left 2
WINDOW 3 36 40 Left 2
SYMATTR InstName L3
SYMATTR Value 1
SYMATTR Type ind
SYMBOL res 1456 480 R270
WINDOW 0 32 56 VTop 2
WINDOW 3 0 56 VBottom 2
SYMATTR InstName R2
SYMATTR Value 0.001
SYMBOL sw 2016 560 R270
WINDOW 0 -16 15 Right 2
WINDOW 3 -11 113 Right 2
SYMATTR InstName RelS2
SYMATTR Value SwNC
SYMBOL sw 3728 176 M270
SYMATTR InstName S3
SYMATTR Value SwNO
SYMBOL zener 2944 912 M180
WINDOW 0 44 36 Left 2
WINDOW 3 24 0 Left 2
SYMATTR InstName D5
SYMATTR Value 1N750
SYMBOL res 1536 832 R0
SYMATTR InstName R5
SYMATTR Value 10000000Meg
SYMBOL res 2944 544 R0
SYMATTR InstName R3-M
SYMATTR Value 2k
SYMBOL sw 2016 464 M90
WINDOW 0 -85 16 Left 2
WINDOW 3 -81 112 Left 2
SYMATTR InstName RelS1
SYMATTR Value SwNO
SYMBOL OpAmp\\LM358_TI 3296 688 R0
SYMATTR InstName U2
SYMBOL OpAmp\\LM358_TI 3952 1008 R0
SYMATTR InstName U1
SYMBOL schottky 2512 720 R270
WINDOW 0 32 32 VTop 2
WINDOW 3 0 32 VBottom 2
SYMATTR InstName D3
SYMATTR Value RBR5L60A
SYMATTR Description Diode
SYMATTR Type diode
SYMBOL schottky 2688 640 R180
WINDOW 0 24 64 Left 2
WINDOW 3 24 0 Left 2
SYMATTR InstName D2
SYMATTR Value RBR5L60A
SYMATTR Description Diode
SYMATTR Type diode
SYMBOL res 3344 752 R0
SYMATTR InstName R4
SYMATTR Value 20k
SYMBOL diode 2048 736 R270
WINDOW 0 32 32 VTop 2
WINDOW 3 0 32 VBottom 2
SYMATTR InstName D7-M
SYMATTR Value 1N4148
SYMBOL res 3520 512 R0
SYMATTR InstName R7
SYMATTR Value 25
SYMBOL miscellaneous\\ntc_resistor 1680 448 R90
WINDOW 3 40 56 VTop 2
SYMATTR Value R0=8
SYMATTR SpiceLine2 B=700000
SYMATTR InstName NTCR1
SYMBOL res 2256 528 R270
WINDOW 0 32 56 VTop 2
WINDOW 3 0 56 VBottom 2
SYMATTR InstName R1
SYMATTR Value 0.001
SYMBOL schottky 1904 432 R180
WINDOW 0 -45 64 Left 2
WINDOW 3 -112 5 Left 2
SYMATTR InstName D8-M
SYMATTR Value RBR5L60A
SYMATTR Description Diode
SYMATTR Type diode
SYMBOL res 3136 640 R90
WINDOW 0 0 56 VBottom 2
WINDOW 3 32 56 VTop 2
SYMATTR InstName R6-M
SYMATTR Value 20k
SYMBOL res 5232 736 R0
SYMATTR InstName R8
SYMATTR Value 20k
SYMBOL res 5232 944 R0
SYMATTR InstName R9
SYMATTR Value 20k
SYMBOL res 3216 704 R90
WINDOW 0 0 56 VBottom 2
WINDOW 3 32 56 VTop 2
SYMATTR InstName R10-M
SYMATTR Value 20k
SYMBOL sw 5088 1648 R270
WINDOW 0 -16 15 Right 2
WINDOW 3 -11 113 Right 2
SYMATTR InstName RelS3
SYMATTR Value SwNC
SYMBOL sw 5088 1552 M90
WINDOW 0 -85 16 Left 2
WINDOW 3 -81 112 Left 2
SYMATTR InstName RelS4
SYMATTR Value SwNO
SYMBOL diode 5120 1824 R270
WINDOW 0 32 32 VTop 2
WINDOW 3 0 32 VBottom 2
SYMATTR InstName D10
SYMATTR Value 1N4148
SYMBOL res 5296 704 R270
WINDOW 0 32 56 VTop 2
WINDOW 3 0 56 VBottom 2
SYMATTR InstName Rout
SYMATTR Value 0.001
SYMBOL zener 2944 832 M180
WINDOW 0 42 35 Left 2
WINDOW 3 24 0 Left 2
SYMATTR InstName D6
SYMATTR Value 1N750
SYMBOL zener 2944 752 M180
WINDOW 0 42 35 Left 2
WINDOW 3 24 0 Left 2
SYMATTR InstName D12
SYMATTR Value MMBZ6V8ALY
SYMBOL zener 2256 192 M180
WINDOW 0 42 35 Left 2
WINDOW 3 24 0 Left 2
SYMATTR InstName 1N5338B
SYMATTR Value UMZ5_1N
SYMBOL polcap 2736 976 R0
WINDOW 3 24 56 Left 2
SYMATTR InstName C2
SYMATTR Value 1000µ
SYMATTR Description Capacitor
SYMATTR Type cap
SYMATTR SpiceLine V=35 Irms=1.95 Rser=0.03 Lser=0 mfg="Panasonic" pn="ECA1VFQ102L" type="Al electrolytic"
SYMBOL schottky 1840 432 R180
WINDOW 0 24 64 Left 2
WINDOW 3 24 0 Left 2
SYMATTR InstName D13
SYMATTR Value RBR5L60A
SYMATTR Description Diode
SYMATTR Type diode
SYMBOL res 2256 -16 R0
SYMATTR InstName R_Fan
SYMATTR Value 71
SYMBOL npn 3392 640 R0
SYMATTR InstName Q1
SYMATTR Value BC547B
SYMBOL voltage 1408 640 R0
WINDOW 123 24 124 Left 2
WINDOW 39 24 152 Left 2
SYMATTR Value2 AC 230 0
SYMATTR SpiceLine Rser=0.1
SYMATTR InstName V1
SYMATTR Value SINE(0 325.57 50)
SYMBOL cap 2032 208 R0
SYMATTR InstName C6-M
SYMATTR Value 470µ
SYMBOL cap 1920 208 R0
SYMATTR InstName C5-M
SYMATTR Value 470µ
SYMBOL REF\\tlv431 3744 1008 R0
SYMATTR InstName U4
SYMBOL res 3744 816 R0
SYMATTR InstName R11
SYMATTR Value 40k
SYMBOL res 5008 976 R0
SYMATTR InstName R2_Pot
SYMATTR Value 800
SYMBOL res 4016 1024 R270
WINDOW 0 32 56 VTop 2
WINDOW 3 0 56 VBottom 2
SYMATTR InstName R2_B
SYMATTR Value 800
SYMBOL npn 4352 1008 R270
SYMATTR InstName Q2
SYMATTR Value BC547B
SYMBOL npn 4448 752 R270
SYMATTR InstName Q3
SYMATTR Value TIP41C
SYMBOL npn 4448 800 R270
SYMATTR InstName Q4
SYMATTR Value TIP41C
SYMBOL npn 4448 848 R270
SYMATTR InstName Q5
SYMATTR Value TIP41C
SYMBOL npn 4448 896 R270
SYMATTR InstName Q6
SYMATTR Value TIP41C
SYMBOL npn 4448 944 R270
SYMATTR InstName Q7
SYMATTR Value TIP41C
SYMBOL res 4640 624 R90
WINDOW 0 0 56 VBottom 2
WINDOW 3 32 56 VTop 2
SYMATTR InstName R12
SYMATTR Value 100m
SYMBOL res 4640 672 R90
WINDOW 0 0 56 VBottom 2
WINDOW 3 32 56 VTop 2
SYMATTR InstName R13
SYMATTR Value 100m
SYMBOL res 4640 720 R90
WINDOW 0 0 56 VBottom 2
WINDOW 3 32 56 VTop 2
SYMATTR InstName R14
SYMATTR Value 100m
SYMBOL res 4640 768 R90
WINDOW 0 0 56 VBottom 2
WINDOW 3 32 56 VTop 2
SYMATTR InstName R15
SYMATTR Value 100m
SYMBOL res 4640 816 R90
WINDOW 0 0 56 VBottom 2
WINDOW 3 32 56 VTop 2
SYMATTR InstName R16
SYMATTR Value 100m
SYMBOL res 4640 864 R90
WINDOW 0 0 56 VBottom 2
WINDOW 3 32 56 VTop 2
SYMATTR InstName R17
SYMATTR Value 100m
SYMBOL res 4880 704 R270
WINDOW 0 32 56 VTop 2
WINDOW 3 0 56 VBottom 2
SYMATTR InstName R18
SYMATTR Value 0.001
SYMBOL polcap 2832 976 R0
WINDOW 3 24 56 Left 2
SYMATTR InstName C3
SYMATTR Value 1000µ
SYMATTR Description Capacitor
SYMATTR Type cap
SYMATTR SpiceLine V=35 Irms=1.95 Rser=0.03 Lser=0 mfg="Panasonic" pn="ECA1VFQ102L" type="Al electrolytic"
SYMBOL polcap 2928 976 R0
WINDOW 3 24 56 Left 2
SYMATTR InstName C4
SYMATTR Value 1000µ
SYMATTR Description Capacitor
SYMATTR Type cap
SYMATTR SpiceLine V=35 Irms=1.95 Rser=0.03 Lser=0 mfg="Panasonic" pn="ECA1VFQ102L" type="Al electrolytic"
SYMBOL cap 2000 16 R0
SYMATTR InstName C8-M
SYMATTR Value 470µ
SYMBOL cap 1888 16 R0
SYMATTR InstName C7
SYMATTR Value 470µ
TEXT 2432 936 Left 2 !.tran 0.35
TEXT 1664 864 Left 2 !K1 L1 L2 L3 1
TEXT 1480 1008 Left 2 !; For the relays\n.MODEL SwNO SW(Ron=10m Roff=100Meg Vt=3 Vh=-.5 Lser=10n Vser=.6)\n.MODEL SwNC SW(Roff=10m Ron=100Meg Vt=3 Vh=-.5 Lser=10n Vser=.6)
TEXT 1448 1144 Left 2 !**************************************\n*      Model Generated by MODPEX     *\n*Copyright(c) Symmetry Design Systems*\n*         All Rights Reserved        *\n*    UNPUBLISHED LICENSED SOFTWARE   *\n*   Contains Proprietary Information *\n*      Which is The Property of      *\n*     SYMMETRY OR ITS LICENSORS      *\n*    Modeling services provided by   *\n* Interface Technologies www.i-t.com *\n**************************************\n.SUBCKT TIP142 1 2 3\n* Model generated on Feb  8, 2004\n* Model format: PSpice\n* Darlington macro model\n* External node designations\n* Node 1 -> Collect\n* Node 2 -> Base\n* Node 3 -> Emitter\nQ1 1 2 4 qmodel\nQ2 1 4 3 q1model 19.6725\nD1 3 1 dmodel\nR1 2 4 8000\nR2 4 3 40\n* Default values used in dmodel\n*   EG=1.11 TT=0 BV=infinite\n.MODEL dmodel d\n+IS=1e-12 RS=10 N=1 XTI=3\n+CJO=0 VJ=0.75 M=0.33 FC=0.5\n.MODEL qmodel npn\n+IS=2.92836e-16 BF=233.76 NF=1.2 VAF=1000\n+IKF=0.222129 ISE=4.61322e-11 NE=2.48158 BR=1.89854\n+NR=0.75 VAR=168.458 IKR=0.108495 ISC=9.99999e-14\n+NC=2.00001 RB=7.90758 IRB=0.2 RBM=7.90758\n+RE=0.275456 RC=1.42279 XTB=0.232595 XTI=3.02293 EG=1.206\n+CJE=1e-11 VJE=0.75 MJE=0.33 TF=1e-09\n+XTF=1 VTF=10 ITF=0.01 CJC=1.67157e-09\n+VJC=0.95 MJC=0.23 XCJC=0.9 FC=0.5\n+TR=1e-07 PTF=0 KF=0 AF=1\n.MODEL q1model npn\n+IS=2.92836e-16 BF=233.76 NF=1.2 VAF=1000\n+IKF=0.222129 ISE=4.61322e-11 NE=2.48158 BR=1.89854\n+NR=0.75 VAR=168.458 IKR=0.108495 ISC=9.99999e-14\n+NC=2.00001 RB=7.90758 IRB=0.2 RBM=7.90758\n+RE=0.275456 RC=1.42279 XTB=0.232595 XTI=3.02293 EG=1.206\n+CJE=1e-11 VJE=0.75 MJE=0.33 TF=1e-09\n+XTF=1 VTF=10 ITF=0.01 CJC=0\n+VJC=0.95 MJC=0.23 XCJC=0.9 FC=0.5\n+TR=1e-07 PTF=0 KF=0 AF=1\n.ENDS
TEXT 4744 336 Left 2 ;Notice that put the protections makes the TIP current be stolen and VCE != 0\nalways (which means, less output voltage, even without an overload).\nPS: happens with any of the 2 protections.
TEXT 3168 976 Left 0 ;Above, a pull-down resistor so that the signal is not floating at t=0
TEXT 3624 1296 Left 2 ;ATTENTION: as said on Discord, there can be drifts in the reference voltage depending\non the ripple from the unregulated supply. Check if with the ripple being at most 3 V it's too\nbad or if we really must use an IC as a fixed DC PSU for the comparator.\nNote: say on the DOCX that you changed your mind because of this.
TEXT 2056 328 Left 2 ;Relay
TEXT 1584 416 Left 2 ;NTCR1
TEXT 2136 704 Left 0 ;Diode here to protect from the coil's back "infinite" EMF
TEXT 2008 544 Left 2 ;NC
TEXT 2008 480 Left 2 ;NO
TEXT 5128 1416 Left 2 ;Relay
TEXT 5080 1632 Left 2 ;NC
TEXT 5080 1568 Left 2 ;NO
TEXT 5040 1288 Left 0 ;Mechanical switch to toggle short-circuit protection\nSo no need for Foldback protection anymore - protection for overcurrent only
TEXT 4208 968 Left 0 ;Try to put a switch here too, and glue to the upper one so that both are controlled at the\nsame time. This way, the relay is bypassed and also disabled (why wear it out if it's not being\nused anyway?).
TEXT 5168 1232 Left 2 ;Put this in the unregulated part - cut the maximum power possible
TEXT 2840 464 Left 4 ;SCHMITT TRIGGER NEEDED HERE!!!!!!!!!!!
TEXT 3624 696 Left 1 ;This is just on paper. In practice, the 17 V rail must be given, as it's more stable than\nthe 5 V one (depends on the fan) - also because in practice, the LMV431 will be\nused, which can withstand up to 35 V (recommended 30 V).\nEDIT: unless the 5 V rail is more stable than the 17 V one (check with the scope, not here).
TEXT 4352 536 Left 1 ;Find another transistor with lower VBE (this one is 1.7 V...), and keep the gain high\n(no darlington pair needed then, which would get another VBE into account).
TEXT 5512 968 Left 2 ;7.5 Ohm minimum (30 V/4 A)\nExcept voltage gets lowered. Test manually at 4 A.\nCurrently (2022-10-27): 7 Ohm
TEXT 4944 760 Left 2 ;The relation of this is not linear!!! FIX THAT\nYou can't put 0 on the bottom. The potentiometer must be on one side only.\nElse, weird relation (try to make an equation just for curiosity of the relation?)
TEXT 2224 1160 Left 2 !.MODEL TIP41C npn\n+IS=7.55826e-11 BF=260.542 NF=1.11221 VAF=100\n+IKF=0.526814 ISE=1e-08 NE=2.18072 BR=26.0542\n+NR=1.5 VAR=1000 IKR=3.54059 ISC=1e-08\n+NC=1.63849 RB=4.56157 IRB=0.1 RBM=0.1\n+RE=0.0162111 RC=0.0810556 XTB=0.1 XTI=1\n+EG=1.206 CJE=1.93296e-10 VJE=0.4 MJE=0.259503\n+TF=1e-08 XTF=4.06972 VTF=7.1157 ITF=0.001\n+CJC=1.09657e-10 VJC=0.730921 MJC=0.23 XCJC=0.803085\n+FC=0.8 CJS=0 VJS=0.75 MJS=0.5\n+TR=9.01013e-08 PTF=0 KF=0 AF=1\n* Model generated on Dec 27, 2003\n* Model format: PSpice
TEXT 2288 80 Left 0 ;17 - 5 = 12 V --> Fan voltage (hence R_fan)
TEXT 2072 -192 Left 6 ;Unregulated module
TEXT 2024 136 Left 2 ;Relay
LINE Normal 2000 352 2176 352 2
LINE Normal 2000 672 2000 352 2
LINE Normal 2144 672 2000 672 2
LINE Normal 2176 672 2144 672 2
LINE Normal 2176 352 2176 672 2
LINE Normal 3696 32 3632 64 2
LINE Normal 5072 1440 5248 1440 2
LINE Normal 5072 1760 5072 1440 2
LINE Normal 5216 1760 5072 1760 2
LINE Normal 5248 1760 5216 1760 2
LINE Normal 5248 1440 5248 1760 2
LINE Normal 5344 1344 5264 1360 2
LINE Normal 5344 1824 5264 1840 2
LINE Normal 5296 1856 5296 1344 2
